*SPEF "IEEE 1481-1998"
*DESIGN "vm"
*DATE "Tue Apr 06 16:37:49 2021"
*VENDOR "AUC CSCE Department"
*PROGRAM "SPEF Extractor"
*VERSION "1.0"
*DESIGN_FLOW "PIN_CAP NONE"
*DIVIDER /
*DELIMITER :
*BUS_DELIMITER []
*T_UNIT 1.00000 NS
*C_UNIT 1.00000 PF
*R_UNIT 1.00000 OHM
*L_UNIT 1.00000 HENRY


*NAME_MAP
*0 change[0]
*1 change[1]
*2 choice[0]
*3 choice[1]
*4 choice[2]
*5 clk
*6 coin[0]
*7 coin[1]
*8 out[0]
*9 out[1]
*10 out[2]
*11 reset
*12 _000_
*13 _001_
*14 _002_
*15 _003_
*16 _004_
*17 _005_
*18 _006_
*19 _007_
*20 _008_
*21 _009_
*22 _010_
*23 _011_
*24 _012_
*25 _013_
*26 _014_
*27 _015_
*28 _016_
*29 _017_
*30 _018_
*31 _019_
*32 _020_
*33 _021_
*34 _022_
*35 _023_
*36 _024_
*37 _025_
*38 _026_
*39 _027_
*40 _028_
*41 _029_
*42 _030_
*43 _031_
*44 _032_
*45 _033_
*46 _034_
*47 _035_
*48 _036_
*49 _037_
*50 _038_
*51 _039_
*52 _040_
*53 _041_
*54 _042_
*55 _043_
*56 _044_
*57 _045_
*58 _046_
*59 _047_
*60 _048_
*61 _049_
*62 _050_
*63 _051_
*64 _052_
*65 _053_
*66 _054_
*67 _055_
*68 _056_
*69 _057_
*70 _058_
*71 _059_
*72 _060_
*73 _061_
*74 _062_
*75 _063_
*76 _064_
*77 _065_
*78 _066_
*79 _067_
*80 _068_
*81 _069_
*82 _070_
*83 _071_
*84 _072_
*85 _073_
*86 _074_
*87 state\[0\]
*88 state\[1\]
*89 state\[2\]
*90 state\[3\]
*91 state\[4\]
*92 state\[5\]
*93 state\[6\]
*94 state\[7\]
*95 clknet_0_clk
*96 clknet_1_0_0_clk
*97 clknet_1_1_0_clk

*D_NET *0 0.01006611698666
*CONN
*P change[0] O
*I _161_:Q O
*I _089_:A I
*CAP
0 *0:1 8.371941029999999e-05
1 *0:3 0.00016229742839999999
2 *0:5 0.00048725884264
3 *0:7 4.640188412000001e-05
4 *0:8 0.00297662074976
5 *0:9 0.0010638665219200002
6 *0:10 0.0010594177002600002
7 _161_:Q 0.0031299002767999997
8 *0:14 0.00105663417246
9 *0:6 0
10 _089_:A 0
11 *0:13 0
*RES
0 *0:1 *0:2 0.1081
1 *0:3 *0:2 0.026633333333333335
2 *0:3 *0:4 0.18016666666666664
3 *0:5 *0:6 5.4642857142857135
4 *0:7 *0:5 0.4107142857142857
5 *0:8 *0:7 33.99999999999999
6 *0:9 _089_:A 11.089285714285714
7 *0:10 *0:11 11.080357142857142
8 *0:10 *0:12 0.8214285714285714
9 _161_:Q *0:13 32.857142857142854
10 *0:14 *0:12 11.991071428571427
11 _161_:Q _161_:Q 0
12 *0:14 *0:1 0
13 *0:6 *0:4 0
14 _089_:A _089_:A 0
15 *0:9 *0:15 0
16 *0:13 *0:11 0
*END

*D_NET *1 0.0115184646853
*CONN
*P change[1] O
*I _162_:Q O
*I _146_:A I
*CAP
12 *1:1 0.0015862856420600002
13 *1:3 0.00032836340175999997
14 *1:5 0.005546769952319999
15 *1:7 0.00016728583584
16 *1:9 0.00014298538739999998
17 *1:11 0.0005181217564799999
18 _146_:A 4.017137184e-05
19 *1:13 0.0031884813376
20 *1:6 0
21 _162_:Q 0
22 *1:8 0
23 *1:12 0
*RES
17 *1:1 *1:2 18.0625
18 *1:3 *1:4 3.642857142857143
19 *1:5 *1:6 58.32142857142856
20 *1:7 *1:8 1.6428571428571428
21 *1:9 *1:10 1.5178571428571426
22 *1:11 *1:12 5.339285714285714
23 _146_:A *1:11 0.30357142857142855
24 *1:13 *1:3 36.42857142857142
25 *1:6 *1:1 0
26 _162_:Q _162_:Q 0
27 _162_:Q *1:3 0
28 *1:5 *1:4 0
29 *1:8 *1:13 0
30 *1:7 *1:10 0
31 *1:12 *1:9 0
32 _146_:A _146_:A 0
*END

*D_NET *2 0.013528086997180002
*CONN
*P choice[0] I
*I _140_:A3 I
*I _134_:D I
*I _125_:A I
*CAP
24 _125_:A 0.00040117644959999997
25 _134_:D 0.0003689741187199999
26 *2:3 0.004433162291160001
27 *2:5 0.0009379416608
28 *2:7 0.00075208457744
29 *2:9 0.00258415551136
30 *2:11 0.0010582766867200002
31 *2:6 0.0004791399875199999
32 *2:13 0.00251317571386
33 *2:1 0
34 *2:2 0
35 _140_:A3 0
36 *2:12 0
*RES
33 _125_:A *2:1 4.107142857142857
34 _134_:D *2:2 3.7678571428571423
35 *2:3 *2:4 50.69642857142857
36 *2:5 _140_:A3 0.6071428571428571
37 *2:5 *2:6 9.035714285714285
38 *2:7 *2:8 8.499999999999998
39 *2:9 *2:10 27.107142857142854
40 *2:11 *2:10 0.30357142857142855
41 *2:6 *2:12 4.928571428571428
42 *2:13 *2:14 28.6875
43 *2:11 _134_:D 10.607142857142858
44 *2:1 *2:4 0
45 _125_:A _125_:A 0
46 _134_:D _134_:D 0
47 *2:2 *2:3 0
48 _140_:A3 _140_:A3 0
49 *2:6 *2:7 0
50 *2:9 *2:8 0
51 *2:12 *2:14 0
*END

*D_NET *3 0.016547147690059997
*CONN
*P choice[1] I
*I _140_:A2 I
*I _135_:A I
*I _134_:B I
*I _131_:B I
*I _126_:B I
*CAP
37 *3:1 0.00231128312864
38 *3:2 6.898398368e-05
39 *3:3 0.00081829101114
40 *3:5 0.00016946796088000002
41 *3:7 0.0002062676048
42 *3:9 0.0012287709000800002
43 _135_:A 0.00012830406688
44 *3:12 0.0028180461251199997
45 *3:14 0.0009481108179199999
46 _140_:A2 5.034052896000001e-05
47 *3:16 0.00016946796088000002
48 *3:18 0.00071303060128
49 *3:20 0.00056670656308
50 _131_:B 0.0002062676048
51 *3:23 0.0019173178105600002
52 *3:24 0.00172655659424
53 *3:21 0.00249993442712
54 _126_:B 0
55 _134_:B 0
56 *3:8 0
57 *3:11 0
58 *3:15 0
59 *3:19 0
60 *3:22 0
*RES
52 *3:1 *3:2 24.232142857142854
53 *3:2 _126_:B 0.6071428571428571
54 *3:3 *3:4 9.25892857142857
55 *3:5 *3:6 1.8214285714285714
56 *3:7 *3:8 2.0535714285714284
57 *3:9 *3:10 13.964285714285714
58 _135_:A *3:11 1.232142857142857
59 *3:12 *3:13 29.571428571428566
60 *3:14 *3:13 0.30357142857142855
61 _140_:A2 *3:15 0.4107142857142857
62 *3:16 *3:17 1.8214285714285714
63 *3:18 *3:19 7.3928571428571415
64 *3:20 *3:21 6.374999999999999
65 _131_:B *3:22 2.0535714285714284
66 *3:23 *3:20 21.857142857142854
67 *3:24 _131_:B 18.07142857142857
68 *3:21 *3:25 28.535714285714285
69 *3:14 _134_:B 9.446428571428571
70 *3:1 *3:10 0
71 _126_:B _126_:B 0
72 *3:24 *3:4 0
73 _134_:B _134_:B 0
74 _134_:B *3:5 0
75 *3:7 *3:6 0
76 *3:8 *3:9 0
77 *3:11 *3:25 0
78 _135_:A _135_:A 0
79 *3:12 *3:21 0
80 _140_:A2 _140_:A2 0
81 *3:15 *3:16 0
82 *3:18 *3:17 0
83 *3:19 *3:20 0
84 _131_:B _131_:B 0
85 *3:22 *3:23 0
*END

*D_NET *4 0.01144845534932
*CONN
*P choice[2] I
*I _140_:B1 I
*I _136_:A I
*I _129_:A I
*I _126_:A I
*CAP
61 _126_:A 4.017137184e-05
62 *4:2 0.00028423114272
63 *4:3 0.00076532586418
64 *4:5 0.0011085702555
65 _140_:B1 9.779659552000001e-05
66 *4:8 0.00011932451264000001
67 *4:9 0.0017655383632
68 _129_:A 0.00016728583584
69 *4:12 0.00019595053436
70 *4:14 0.0015316477494400002
71 *4:15 0.0004078111222
72 *4:7 0.00328582735264
73 *4:17 0.0016789746492400003
74 *4:4 0
75 _136_:A 0
76 *4:10 0
77 *4:11 0
78 *4:16 0
*RES
86 _126_:A *4:1 0.30357142857142855
87 *4:2 *4:1 2.875
88 *4:3 *4:4 8.651785714285714
89 *4:5 *4:6 1.9818333333333336
90 _140_:B1 *4:7 0.9107142857142857
91 *4:8 _136_:A 0.4107142857142857
92 *4:8 *4:9 0.6071428571428571
93 *4:9 *4:10 18.482142857142854
94 _129_:A *4:11 1.6428571428571428
95 *4:12 *4:13 2.1249999999999996
96 *4:14 *4:9 16.017857142857142
97 *4:15 *4:12 4.553571428571428
98 *4:7 *4:16 34.5
99 *4:17 *4:3 19.125
100 _126_:A _126_:A 0
101 *4:2 *4:3 0
102 *4:4 *4:5 0
103 _140_:B1 _140_:B1 0
104 _136_:A _136_:A 0
105 *4:10 *4:17 0
106 _129_:A _129_:A 0
107 *4:11 *4:13 0
108 *4:14 *4:12 0
109 *4:16 *4:15 0
*END

*D_NET *5 0.007100033486300001
*CONN
*P clk I
*I clkbuf_0_clk:A I
*CAP
79 *5:1 0.00227230135968
80 *5:3 0.0018246288033800001
81 *5:5 0.0030031033232400003
82 *5:2 0
83 clkbuf_0_clk:A 0
*RES
110 *5:1 *5:2 23.82142857142857
111 *5:3 *5:4 20.794642857142854
112 *5:5 *5:6 34.30357142857142
113 *5:1 *5:3 0
114 *5:2 *5:6 0
115 clkbuf_0_clk:A clkbuf_0_clk:A 0
116 clkbuf_0_clk:A *5:5 0
*END

*D_NET *6 0.01243233612972
*CONN
*P coin[0] I
*I _095_:A I
*I _090_:A I
*I _078_:A I
*CAP
84 *6:1 0.0034003419254400005
85 *6:3 0.00168757482528
86 *6:4 9.002024044000002e-05
87 *6:6 0.0004791399875199999
88 *6:8 8.932229792e-05
89 *6:9 0.0002753982548
90 *6:11 0.0023502648976000003
91 *6:13 7.67789537e-05
92 *6:15 0.00016946796088000002
93 *6:16 0.0015027436575
94 *6:18 0.00231128312864
95 _078_:A 0
96 _090_:A 0
97 *6:19 0
98 *6:7 0
99 _095_:A 0
100 *6:12 0
101 *6:14 0
*RES
117 *6:1 *6:2 38.857142857142854
118 *6:3 _090_:A 17.660714285714285
119 *6:4 *6:5 0.9107142857142857
120 *6:6 *6:7 4.928571428571428
121 *6:8 _095_:A 0.8214285714285714
122 *6:9 *6:10 3.035714285714285
123 *6:11 *6:12 24.642857142857142
124 *6:13 *6:14 0.7589285714285713
125 *6:15 *6:9 1.8214285714285714
126 *6:16 *6:17 2.7025
127 *6:18 *6:19 24.232142857142854
128 _078_:A _078_:A 0
129 _078_:A *6:2 0
130 *6:3 *6:1 0
131 _090_:A _090_:A 0
132 *6:19 *6:4 0
133 *6:6 *6:5 0
134 *6:7 *6:20 0
135 _095_:A _095_:A 0
136 *6:8 *6:9 0
137 *6:12 *6:10 0
138 *6:11 *6:13 0
139 *6:14 *6:17 0
140 *6:18 *6:15 0
*END

*D_NET *7 0.01301743338526
*CONN
*P coin[1] I
*I _091_:A I
*I _078_:B I
*CAP
102 *7:1 0.0010831167459400002
103 *7:3 4.640188412000001e-05
104 *7:4 0.0029236556028
105 *7:6 0.0013757206736000002
106 *7:8 0.000985902984
107 *7:9 0.0005005001293800001
108 *7:10 0.0013214599072599999
109 *7:12 0.00016946796088000002
110 *7:14 0.00461120749728
111 *7:15 0
112 _078_:B 0
113 *7:7 0
114 _091_:A 0
*RES
141 *7:1 *7:2 12.294642857142856
142 *7:3 *7:1 0.4107142857142857
143 *7:4 *7:5 33.39285714285714
144 *7:6 *7:7 14.375
145 *7:8 _078_:B 10.267857142857142
146 *7:9 *7:3 5.616071428571428
147 *7:10 *7:11 15.026785714285712
148 *7:12 *7:13 1.8214285714285714
149 *7:14 *7:15 48.46428571428571
150 *7:15 *7:2 0
151 _078_:B _078_:B 0
152 _078_:B *7:5 0
153 *7:6 *7:4 0
154 *7:7 *7:11 0
155 *7:8 *7:9 0
156 *7:14 *7:12 0
157 _091_:A _091_:A 0
158 _091_:A *7:13 0
*END

*D_NET *8 0.01598838625748
*CONN
*P out[0] O
*I _158_:Q O
*I _122_:B1 I
*I _118_:A I
*CAP
115 *8:1 0.00402767056576
116 _158_:Q 0.00017864459584
117 *8:3 0.00088449744484
118 *8:5 0.000985902984
119 *8:7 0.00014298538739999998
120 *8:9 0.0004791399875199999
121 *8:11 7.67789537e-05
122 *8:13 0.0015027436575
123 *8:15 0.00528060464252
124 *8:17 4.017137184e-05
125 *8:18 0.0023892466665599997
126 _122_:B1 0
127 *8:2 0
128 *8:6 0
129 _118_:A 0
130 *8:19 0
131 *8:10 0
132 *8:12 0
*RES
159 *8:1 _122_:B1 0.30357142857142855
160 _158_:Q *8:2 0.4107142857142857
161 *8:3 *8:4 10.017857142857142
162 *8:5 *8:6 10.267857142857142
163 *8:7 *8:8 1.5178571428571426
164 _158_:Q _158_:Q 1.232142857142857
165 *8:9 *8:10 4.928571428571428
166 *8:11 *8:12 0.7589285714285713
167 *8:13 *8:14 2.7025
168 *8:15 *8:16 60.41071428571428
169 *8:17 *8:18 0.30357142857142855
170 *8:1 *8:17 41.89285714285714
171 *8:18 *8:19 25.053571428571423
172 _122_:B1 _122_:B1 0
173 _158_:Q _158_:Q 0
174 *8:2 *8:3 0
175 *8:5 *8:4 0
176 *8:6 *8:7 0
177 _118_:A _118_:A 0
178 _118_:A *8:8 0
179 *8:19 *8:20 0
180 _158_:Q *8:16 0
181 *8:9 *8:15 0
182 *8:10 *8:11 0
183 *8:12 *8:13 0
*END

*D_NET *9 0.009823451163840001
*CONN
*P out[1] O
*I _159_:Q O
*I _109_:B1 I
*CAP
133 *9:1 0.0009509008947
134 *9:3 0.0034417544284799997
135 *9:5 0.00030188082828000006
136 *9:7 8.932229792e-05
137 *9:8 0.00228807383928
138 *9:9 0.00275151887518
139 *9:10 0
140 *9:4 0
141 _159_:Q 0
142 _109_:B1 0
*RES
184 *9:1 *9:2 1.6935666666666669
185 *9:3 *9:4 36.14285714285714
186 *9:5 *9:6 3.339285714285714
187 *9:7 _159_:Q 0.8214285714285714
188 *9:8 *9:9 26.107142857142854
189 *9:9 *9:10 31.41964285714285
190 *9:10 *9:2 0
191 *9:3 *9:9 0
192 *9:4 *9:6 0
193 *9:7 *9:5 0
194 _159_:Q _159_:Q 0
195 _109_:B1 _109_:B1 0
196 _109_:B1 *9:8 0
*END

*D_NET *10 0.01157855646734
*CONN
*P out[2] O
*I _160_:Q O
*I _106_:B1 I
*CAP
143 *10:1 0.0014538727746600001
144 *10:3 0.0031688820457599996
145 *10:5 0.00149359663488
146 *10:7 0.00082997590816
147 _106_:B1 4.017137184e-05
148 *10:6 0.004592057732040001
149 *10:4 0
150 _160_:Q 0
151 *10:8 0
*RES
197 *10:1 *10:2 16.544642857142858
198 *10:3 *10:4 33.26785714285714
199 *10:5 *10:6 16.999999999999996
200 *10:7 *10:8 8.625
201 _106_:B1 *10:7 0.30357142857142855
202 *10:6 *10:9 52.51785714285714
203 *10:4 *10:1 0
204 *10:3 *10:9 0
205 _160_:Q _160_:Q 0
206 _160_:Q *10:6 0
207 *10:8 *10:5 0
208 _106_:B1 _106_:B1 0
*END

*D_NET *11 0.01692563964722
*CONN
*P reset I
*I _143_:A I
*I _141_:C I
*I _107_:A I
*I _075_:A I
*CAP
152 _143_:A 6.424157824e-05
153 *11:2 0.00022243310784000002
154 *11:4 0.0031688820457599996
155 _075_:A 4.017137184e-05
156 *11:6 0.00110284829088
157 *11:1 0.004455280421439999
158 *11:9 0.0013479424807400003
159 *11:7 0.00024524937376
160 _141_:C 0.0004948174380799999
161 *11:13 0.0057837735386400005
162 _107_:A 0
163 *11:11 0
164 *11:8 0
165 *11:12 0
*RES
209 _143_:A *11:1 0.30357142857142855
210 _143_:A _143_:A 0.13392857142857142
211 *11:2 *11:3 2.4285714285714284
212 *11:4 *11:5 33.26785714285714
213 _075_:A *11:5 0.30357142857142855
214 *11:6 *11:7 11.5
215 *11:1 *11:8 46.82142857142856
216 *11:9 *11:10 15.330357142857142
217 *11:7 *11:11 2.464285714285714
218 _141_:C *11:12 5.09375
219 *11:13 *11:14 66.17857142857143
220 _143_:A _143_:A 0
221 _107_:A _107_:A 0
222 _107_:A *11:3 0
223 *11:4 *11:2 0
224 _075_:A _075_:A 0
225 *11:11 *11:15 0
226 *11:7 *11:14 0
227 *11:6 *11:9 0
228 *11:8 *11:16 0
229 _141_:C _141_:C 0
230 *11:12 *11:13 0
*END

*D_NET *12 0.004518902475840001
*CONN
*I _151_:D I
*I _133_:X O
*CAP
166 *12:1 0.00012830406688
167 *12:3 0.0011228406061600002
168 _151_:D 0.00082997590816
169 *12:6 0.0006726368570000002
170 *12:8 0.0010650561248000002
171 *12:11 0.00014298538739999998
172 *12:13 0.00055710352544
173 *12:2 0
174 *12:5 0
175 *12:10 0
176 _133_:X 0
*RES
231 *12:1 *12:2 1.232142857142857
232 *12:3 *12:4 12.749999999999998
233 _151_:D *12:5 8.625
234 *12:6 *12:7 7.5892857142857135
235 *12:8 *12:9 0.30357142857142855
236 *12:8 *12:10 10.678571428571429
237 *12:11 *12:12 1.5178571428571426
238 *12:13 *12:9 5.75
239 *12:13 *12:7 0
240 *12:2 *12:6 0
241 *12:1 *12:4 0
242 *12:5 *12:3 0
243 _151_:D _151_:D 0
244 *12:10 *12:11 0
245 _133_:X _133_:X 0
246 _133_:X *12:12 0
*END

*D_NET *13 0.0047953569718000005
*CONN
*I _152_:D I
*I _131_:X O
*CAP
177 _152_:D 0.0003621946806399999
178 *13:2 0.004433162291160001
179 *13:1 0
180 _131_:X 0
*RES
247 _152_:D *13:1 3.6964285714285707
248 *13:2 *13:3 50.69642857142857
249 *13:1 *13:3 0
250 _152_:D _152_:D 0
251 _131_:X _131_:X 0
252 _131_:X *13:2 0
*END

*D_NET *14 0.008929767111279999
*CONN
*I _154_:D I
*I _128_:X O
*CAP
181 *14:1 0.005254122069039999
182 *14:3 0.00367564504224
183 _154_:D 0
184 _128_:X 0
*RES
253 *14:1 *14:2 60.10714285714285
254 *14:3 _154_:D 38.607142857142854
255 _154_:D _154_:D 0
256 _128_:X _128_:X 0
257 _128_:X *14:2 0
258 *14:3 *14:1 0
*END

*D_NET *15 0.00674813785496
*CONN
*I _155_:D I
*I _132_:X O
*CAP
185 *15:1 0.00086895767712
186 *15:2 4.017137184e-05
187 *15:3 0.0005181217564799999
188 *15:5 4.017137184e-05
189 _155_:D 0.0012977571356799999
190 *15:6 0.003982958542
191 _132_:X 0
192 *15:4 0
*RES
259 *15:1 *15:2 9.035714285714285
260 *15:2 _132_:X 0.30357142857142855
261 *15:3 *15:4 5.339285714285714
262 *15:5 *15:3 0.30357142857142855
263 _155_:D *15:5 13.553571428571427
264 *15:6 *15:7 45.535714285714285
265 *15:1 *15:7 0
266 _132_:X _132_:X 0
267 *15:4 *15:6 0
268 _155_:D _155_:D 0
*END

*D_NET *16 0.00441581642512
*CONN
*I _156_:D I
*I _134_:X O
*CAP
193 *16:1 4.640188412000001e-05
194 *16:2 0.0013479424807400003
195 _134_:X 4.017137184e-05
196 *16:5 0.0003621946806399999
197 *16:6 0.00261910600778
198 _156_:D 0
*RES
269 *16:1 *16:2 0.4107142857142857
270 *16:2 *16:3 15.330357142857142
271 _134_:X *16:4 0.30357142857142855
272 *16:5 *16:4 3.6964285714285707
273 *16:6 *16:1 29.90178571428571
274 _156_:D _156_:D 0
275 _156_:D *16:3 0
276 _134_:X _134_:X 0
277 *16:5 *16:6 0
*END

*D_NET *17 0.00634656596508
*CONN
*I _157_:D I
*I _136_:X O
*CAP
199 *17:1 0.00019595053436
200 *17:3 2.3813806740000006e-05
201 *17:5 0.0012465309462
202 *17:7 2.3813806740000006e-05
203 _136_:X 8.932229792e-05
204 *17:9 0.0047671345731199995
205 _157_:D 0
206 *17:10 0
207 *17:4 0
208 *17:8 0
*RES
278 *17:1 *17:2 2.1249999999999996
279 *17:3 *17:4 0.15178571428571427
280 *17:5 *17:6 2.234066666666667
281 *17:7 *17:8 0.15178571428571427
282 _136_:X _136_:X 0.8214285714285714
283 *17:9 *17:10 50.10714285714285
284 *17:9 *17:1 0
285 _157_:D _157_:D 0
286 _157_:D *17:2 0
287 *17:10 *17:3 0
288 *17:4 *17:5 0
289 *17:8 *17:6 0
290 _136_:X *17:7 0
291 _136_:X _136_:X 0
*END

*D_NET *18 0.0069248558843200015
*CONN
*I _150_:D I
*I _145_:X O
*CAP
209 *18:1 0.00011650281392
210 *18:3 0.00082997590816
211 *18:5 0.0017054572227200003
212 *18:7 4.017137184e-05
213 _150_:D 0.0028960096630400002
214 *18:8 0.0013367389046400001
215 *18:9 0
216 *18:4 0
217 _145_:X 0
*RES
292 *18:1 *18:2 1.2142857142857142
293 *18:3 *18:4 8.625
294 *18:5 *18:6 19.428571428571427
295 *18:7 *18:8 0.30357142857142855
296 _150_:D *18:7 30.39285714285714
297 *18:8 *18:9 13.964285714285714
298 *18:9 *18:1 0
299 *18:3 *18:2 0
300 *18:4 *18:5 0
301 _145_:X _145_:X 0
302 _145_:X *18:6 0
303 _150_:D _150_:D 0
*END

*D_NET *19 0.00288427016884
*CONN
*I _153_:D I
*I _139_:X O
*CAP
218 *19:1 0.00067404883232
219 *19:2 0.0009904277387600001
220 _153_:D 0.00121979359776
221 _139_:X 0
222 *19:4 0
*RES
304 *19:1 _139_:X 6.982142857142857
305 *19:2 *19:3 11.232142857142856
306 _153_:D *19:4 12.732142857142856
307 *19:1 *19:3 0
308 _139_:X _139_:X 0
309 *19:4 *19:2 0
310 _153_:D _153_:D 0
*END

*D_NET *20 0.0011282626360800002
*CONN
*I _158_:D I
*I _124_:X O
*CAP
223 _158_:D 0.00032321291168
224 *20:2 0.0008050497244000001
225 *20:1 0
226 _124_:X 0
*RES
311 _158_:D *20:1 3.2857142857142856
312 *20:2 *20:3 9.107142857142856
313 _158_:D _158_:D 0
314 *20:1 *20:3 0
315 _124_:X _124_:X 0
316 _124_:X *20:2 0
*END

*D_NET *21 0.004481075089720001
*CONN
*I _159_:D I
*I _117_:X O
*CAP
227 *21:1 0.00089895989184
228 *21:4 9.002024044000002e-05
229 *21:6 8.932229792e-05
230 _159_:D 0.0034027726595200003
231 *21:3 0
232 _117_:X 0
*RES
317 *21:1 *21:2 0.6071428571428571
318 *21:1 *21:3 8.625
319 *21:4 *21:5 0.9107142857142857
320 *21:6 _117_:X 0.8214285714285714
321 _159_:D *21:2 35.732142857142854
322 *21:3 *21:5 0
323 *21:6 *21:4 0
324 _117_:X _117_:X 0
325 _159_:D _159_:D 0
*END

*D_NET *22 0.0033305360706
*CONN
*I _160_:D I
*I _108_:Y O
*CAP
233 *22:1 0.00149266598048
234 *22:2 0.0018378700901200003
235 _108_:Y 0
236 _160_:D 0
*RES
326 *22:1 _108_:Y 15.607142857142856
327 *22:2 *22:3 20.94642857142857
328 _108_:Y _108_:Y 0
329 *22:1 *22:2 0
330 _160_:D _160_:D 0
331 _160_:D *22:3 0
*END

*D_NET *23 0.00146152107836
*CONN
*I _161_:D I
*I _100_:X O
*CAP
237 _161_:D 0.0002062676048
238 *23:2 0.00125525347356
239 *23:1 0
240 _100_:X 0
*RES
332 _161_:D *23:1 2.0535714285714284
333 *23:2 *23:3 14.267857142857142
334 *23:1 *23:3 0
335 _161_:D _161_:D 0
336 _100_:X _100_:X 0
337 _100_:X *23:2 0
*END

*D_NET *24 0.00835582276896
*CONN
*I _162_:D I
*I _149_:X O
*CAP
241 _162_:D 0.00016728583584
242 *24:2 0.00594266897952
243 *24:4 0.00083116551104
244 *24:6 0.0014147024425599998
245 *24:1 0
246 _149_:X 0
*RES
338 _162_:D *24:1 1.6428571428571428
339 *24:2 *24:3 67.99999999999999
340 *24:4 *24:5 0.30357142857142855
341 *24:4 _149_:X 8.214285714285714
342 *24:6 *24:5 14.785714285714283
343 *24:1 *24:3 0
344 _162_:D _162_:D 0
345 *24:6 *24:2 0
346 _149_:X _149_:X 0
*END

*D_NET *25 0.01047252831748
*CONN
*I _143_:C I
*I _142_:Y O
*CAP
247 *25:1 0.0002062676048
248 *25:3 0.0072631573894399995
249 *25:4 0.0030031033232400003
250 _143_:C 0
251 _142_:Y 0
*RES
347 *25:1 *25:2 2.0535714285714284
348 *25:3 *25:2 0.30357142857142855
349 *25:4 *25:5 34.30357142857142
350 *25:3 _142_:Y 75.98214285714285
351 _143_:C _143_:C 0
352 _143_:C *25:5 0
353 *25:1 *25:4 0
354 _142_:Y _142_:Y 0
*END

*D_NET *26 0.007801932718680001
*CONN
*I _144_:A I
*I _143_:X O
*CAP
252 *26:1 0.00090793944608
253 *26:3 0.00083153229788
254 *26:5 0.0034003419254400005
255 *26:7 0.0026621190492800003
256 _143_:X 0
257 _144_:A 0
258 *26:2 0
*RES
355 *26:1 *26:2 9.446428571428571
356 *26:3 *26:4 9.410714285714285
357 *26:5 *26:6 38.857142857142854
358 *26:7 _144_:A 27.928571428571427
359 _143_:X _143_:X 0
360 _143_:X *26:6 0
361 _144_:A _144_:A 0
362 *26:1 *26:5 0
363 *26:2 *26:4 0
364 *26:7 *26:3 0
*END

*D_NET *27 0.00664838970336
*CONN
*I _145_:C1 I
*I _144_:Y O
*CAP
259 *27:1 0.0023502648976000003
260 _144_:Y 5.034052896000001e-05
261 *27:3 0.0042477842768
262 _145_:C1 0
263 *27:2 0
*RES
365 *27:1 _145_:C1 24.642857142857142
366 _144_:Y *27:2 0.4107142857142857
367 *27:3 *27:4 48.57142857142856
368 _145_:C1 _145_:C1 0
369 *27:1 *27:4 0
370 _144_:Y _144_:Y 0
371 *27:2 *27:3 0
*END

*D_NET *28 0.004811315890560001
*CONN
*I _149_:B I
*I _146_:X O
*CAP
264 *28:1 0.00255289957408
265 *28:3 0.0014938555833600002
266 *28:5 0.00028423114272
267 *28:6 4.017137184e-05
268 _146_:X 0.00044015821855999997
269 *28:7 0
270 _149_:B 0
*RES
372 *28:1 *28:2 29.142857142857142
373 *28:3 *28:4 0.30357142857142855
374 *28:5 *28:4 2.875
375 *28:6 *28:5 0.30357142857142855
376 _146_:X *28:6 4.517857142857142
377 *28:3 *28:7 15.19642857142857
378 *28:7 *28:2 0
379 _149_:B _149_:B 0
380 _149_:B *28:1 0
381 _146_:X _146_:X 0
*END

*D_NET *29 0.011222221290920001
*CONN
*I _148_:B I
*I _147_:X O
*CAP
271 *29:1 0.00414342626976
272 _147_:X 5.034052896000001e-05
273 *29:3 0.0070284544921999995
274 _148_:B 0
275 *29:2 0
*RES
382 *29:1 _148_:B 43.53571428571428
383 _147_:X *29:2 0.4107142857142857
384 *29:3 *29:4 80.44642857142856
385 _148_:B _148_:B 0
386 *29:1 *29:4 0
387 *29:2 *29:3 0
388 _147_:X _147_:X 0
*END

*D_NET *30 0.00954152454448
*CONN
*I _149_:C I
*I _148_:X O
*CAP
276 *30:1 0.00026883499196000006
277 *30:3 4.640188412000001e-05
278 *30:4 0.00336061806522
279 *30:6 0.00219433782176
280 _149_:C 0.00028423114272
281 *30:8 0.0033871006387
282 _148_:X 0
283 *30:7 0
*RES
389 *30:1 *30:2 0.4107142857142857
390 *30:1 *30:3 2.4285714285714284
391 *30:3 *30:4 0.4107142857142857
392 *30:4 *30:5 38.40178571428571
393 *30:6 _148_:X 23.0
394 _149_:C *30:7 2.875
395 *30:8 *30:2 38.70535714285714
396 *30:6 *30:5 0
397 _148_:X _148_:X 0
398 _149_:C _149_:C 0
399 *30:7 *30:8 0
*END

*D_NET *31 0.01363230502904
*CONN
*I _130_:A I
*I _076_:A I
*I _075_:Y O
*CAP
284 *31:1 0.0022086261188400003
285 *31:3 0.00040117644959999997
286 _076_:A 6.898398368e-05
287 *31:4 0.0041044445008
288 *31:6 0.00171869850946
289 *31:8 0.00184454811402
290 _130_:A 0.00328582735264
291 *31:5 0
292 _075_:Y 0
293 *31:11 0
294 *31:9 0
*RES
400 *31:1 *31:2 25.19642857142857
401 *31:3 _075_:Y 4.107142857142857
402 _076_:A *31:4 0.6071428571428571
403 *31:4 *31:5 43.12499999999999
404 *31:6 *31:7 19.580357142857142
405 *31:8 *31:7 0.4107142857142857
406 _130_:A *31:9 34.5
407 *31:8 *31:10 20.491071428571427
408 *31:5 *31:1 0
409 *31:3 *31:2 0
410 _075_:Y _075_:Y 0
411 _130_:A _130_:A 0
412 _076_:A _076_:A 0
413 *31:11 *31:10 0
414 *31:9 *31:6 0
*END

*D_NET *32 0.012031403983200004
*CONN
*I _138_:A I
*I _137_:C I
*I _133_:C I
*I _132_:C I
*I _077_:A I
*I _076_:X O
*CAP
295 *32:1 8.932229792e-05
296 *32:3 0.00175842236968
297 *32:5 0.0009469212150399999
298 *32:6 0.00022243310784000002
299 *32:8 0.00145368421152
300 _133_:C 0.0016485930563200002
301 *32:7 0.00255289957408
302 *32:11 8.932229792e-05
303 *32:12 0.00027525158848
304 _137_:C 0.00012830406688
305 *32:15 6.353766696000002e-05
306 *32:17 0.00028423114272
307 *32:19 0.00149359663488
308 *32:21 0.0010248847529600001
309 *32:2 0
310 _132_:C 0
311 _138_:A 0
312 _077_:A 0
313 *32:9 0
314 _076_:X 0
315 *32:13 0
316 *32:18 0
*RES
415 *32:1 *32:2 0.8214285714285714
416 *32:3 *32:4 20.035714285714285
417 *32:5 _132_:C 9.857142857142856
418 *32:6 *32:7 2.4285714285714284
419 *32:8 _077_:A 15.19642857142857
420 _133_:C *32:9 17.25
421 *32:7 *32:10 29.142857142857142
422 *32:11 _076_:X 0.8214285714285714
423 *32:12 *32:13 2.0535714285714284
424 *32:12 *32:14 0.6071428571428571
425 _137_:C *32:14 1.232142857142857
426 *32:15 *32:16 0.6071428571428571
427 *32:17 *32:18 2.875
428 *32:19 *32:20 16.999999999999996
429 *32:21 _133_:C 10.678571428571429
430 *32:1 *32:10 0
431 *32:2 *32:3 0
432 *32:5 *32:4 0
433 _132_:C _132_:C 0
434 _138_:A _138_:A 0
435 _138_:A *32:7 0
436 *32:8 *32:6 0
437 _077_:A _077_:A 0
438 _133_:C _133_:C 0
439 *32:9 *32:22 0
440 *32:11 *32:20 0
441 _076_:X _076_:X 0
442 *32:13 *32:19 0
443 _137_:C _137_:C 0
444 *32:21 *32:15 0
445 *32:18 *32:16 0
446 *32:17 *32:23 0
*END

*D_NET *33 0.018279010369400002
*CONN
*I _149_:A I
*I _128_:A I
*I _124_:A I
*I _117_:A I
*I _100_:A I
*I _077_:X O
*CAP
317 _124_:A 4.017137184e-05
318 *33:2 0.0021291783984
319 *33:4 0.00324684558368
320 *33:5 0.00048725884264
321 *33:7 0.00061967171004
322 _128_:A 0.00207739251488
323 *33:10 0.00110284829088
324 *33:12 0.0015995269288
325 *33:13 0.0018824836700799999
326 _100_:A 0.0023892466665599997
327 *33:15 0.0009374625918000002
328 *33:14 0.0011808118288000001
329 *33:18 0.00030188082828000006
330 *33:20 0.00028423114272
331 *33:21 0
332 _149_:A 0
333 _077_:X 0
334 _117_:A 0
335 *33:23 0
336 *33:9 0
337 *33:11 0
338 *33:17 0
*RES
447 _124_:A *33:1 0.30357142857142855
448 *33:2 *33:3 24.28571428571428
449 *33:4 _077_:X 34.08928571428571
450 *33:5 *33:6 5.4642857142857135
451 *33:7 *33:8 6.982142857142857
452 _128_:A *33:9 21.76785714285714
453 *33:10 *33:11 11.5
454 *33:12 *33:7 18.21428571428571
455 *33:13 *33:1 19.71428571428571
456 _100_:A *33:14 25.053571428571423
457 *33:15 *33:16 10.625
458 *33:14 *33:17 12.321428571428571
459 *33:18 *33:19 3.339285714285714
460 *33:20 *33:21 2.875
461 _124_:A _124_:A 0
462 *33:21 *33:3 0
463 _149_:A _149_:A 0
464 _149_:A *33:2 0
465 _077_:X _077_:X 0
466 *33:4 *33:22 0
467 _117_:A _117_:A 0
468 _117_:A *33:6 0
469 *33:23 *33:5 0
470 *33:13 *33:7 0
471 *33:9 *33:8 0
472 _128_:A _128_:A 0
473 *33:10 *33:19 0
474 *33:11 *33:12 0
475 *33:14 *33:18 0
476 _100_:A _100_:A 0
477 *33:20 *33:15 0
478 *33:17 *33:16 0
*END

*D_NET *34 0.013106936253440001
*CONN
*I _122_:B2 I
*I _109_:A2 I
*I _079_:A I
*I _078_:X O
*CAP
339 _122_:B2 4.017137184e-05
340 *34:2 0.0013757206736000002
341 *34:3 0.0018643526636000001
342 *34:1 0.0002062676048
343 *34:6 0.004260371576639999
344 *34:7 0.005360052362960001
345 _079_:A 0
346 _078_:X 0
347 *34:5 0
348 _109_:A2 0
*RES
479 _122_:B2 *34:1 0.30357142857142855
480 *34:2 _078_:X 14.375
481 *34:3 *34:4 21.25
482 *34:1 *34:5 2.0535714285714284
483 *34:6 _079_:A 44.76785714285714
484 *34:7 *34:8 61.32142857142857
485 _122_:B2 _122_:B2 0
486 _079_:A _079_:A 0
487 _079_:A *34:4 0
488 *34:2 *34:3 0
489 _078_:X _078_:X 0
490 *34:5 *34:8 0
491 *34:6 *34:9 0
492 _109_:A2 _109_:A2 0
493 _109_:A2 *34:7 0
*END

*D_NET *35 0.011084800718880001
*CONN
*I _114_:A I
*I _103_:A2 I
*I _087_:A1 I
*I _079_:Y O
*CAP
349 *35:1 0.00083153229788
350 *35:3 0.0021553560528000002
351 _103_:A2 4.017137184e-05
352 *35:2 0.00022243310784000002
353 *35:6 4.640188412000001e-05
354 *35:7 0.0006726368570000002
355 *35:9 0.00028423114272
356 _087_:A1 4.017137184e-05
357 *35:11 0.00028423114272
358 *35:13 0.00291041431606
359 *35:15 0.0002610974412
360 *35:17 5.029638022e-05
361 *35:12 0.00328582735264
362 _079_:Y 0
363 *35:19 0
364 _114_:A 0
365 *35:10 0
366 *35:18 0
*RES
494 *35:1 *35:2 9.410714285714285
495 *35:3 *35:4 22.58928571428571
496 _103_:A2 *35:4 0.30357142857142855
497 *35:2 *35:5 2.4285714285714284
498 *35:6 *35:7 0.4107142857142857
499 *35:7 *35:8 7.5892857142857135
500 *35:9 *35:10 2.875
501 _087_:A1 *35:11 0.30357142857142855
502 *35:11 *35:12 2.875
503 *35:13 *35:14 33.24107142857142
504 *35:15 *35:16 0.4324
505 *35:17 *35:18 0.45535714285714285
506 *35:12 *35:19 34.5
507 _079_:Y _079_:Y 0
508 _079_:Y *35:2 0
509 *35:3 *35:1 0
510 _103_:A2 _103_:A2 0
511 *35:19 *35:5 0
512 _114_:A _114_:A 0
513 _114_:A *35:6 0
514 *35:9 *35:8 0
515 *35:10 *35:17 0
516 _087_:A1 _087_:A1 0
517 *35:12 *35:14 0
518 *35:13 *35:16 0
519 *35:18 *35:15 0
*END

*D_NET *36 0.010760866191480001
*CONN
*I _106_:A1 I
*I _102_:B I
*I _101_:B1 I
*I _097_:A I
*I _083_:A I
*I _080_:X O
*CAP
367 *36:1 0.0002062676048
368 _101_:B1 9.051190080000001e-05
369 *36:3 0.00012830406688
370 *36:4 0.0009109800183200002
371 *36:6 0.00211637428384
372 *36:8 9.002024044000002e-05
373 *36:10 0.00012830406688
374 *36:5 0.00104339288572
375 *36:13 0.00064615428352
376 _097_:A 0.00125877536672
377 *36:15 4.017137184e-05
378 *36:16 0.00125877536672
379 *36:18 0.0013757206736000002
380 *36:19 0.0014671140614000001
381 _102_:B 0
382 *36:2 0
383 _106_:A1 0
384 *36:7 0
385 _080_:X 0
386 *36:11 0
387 _083_:A 0
388 *36:17 0
*RES
520 *36:1 _102_:B 2.0535714285714284
521 _101_:B1 _101_:B1 0.4107142857142857
522 _101_:B1 *36:2 0.30357142857142855
523 *36:3 _106_:A1 1.232142857142857
524 *36:4 *36:5 10.321428571428571
525 *36:6 *36:7 22.178571428571427
526 *36:8 *36:9 0.9107142857142857
527 *36:10 *36:11 1.232142857142857
528 *36:5 *36:12 11.839285714285714
529 *36:13 *36:14 7.285714285714286
530 _097_:A *36:15 13.142857142857142
531 *36:15 *36:16 0.30357142857142855
532 *36:16 *36:17 13.142857142857142
533 *36:18 _097_:A 14.375
534 *36:19 *36:20 16.69642857142857
535 *36:1 *36:20 0
536 _102_:B _102_:B 0
537 _101_:B1 _101_:B1 0
538 *36:2 *36:14 0
539 _106_:A1 _106_:A1 0
540 *36:3 *36:4 0
541 *36:7 *36:5 0
542 *36:6 *36:8 0
543 _080_:X _080_:X 0
544 _080_:X *36:9 0
545 *36:11 *36:13 0
546 *36:10 *36:12 0
547 *36:18 *36:21 0
548 _083_:A _083_:A 0
549 _083_:A *36:19 0
550 _097_:A _097_:A 0
551 *36:17 *36:22 0
*END

*D_NET *37 0.013746048352560002
*CONN
*I _142_:B1 I
*I _097_:B I
*I _084_:D I
*I _083_:B I
*I _081_:X O
*CAP
389 *37:1 0.0007909941392
390 *37:2 0.0032574712991000005
391 *37:5 9.779659552000001e-05
392 *37:6 0.00114183005984
393 *37:7 0.0013214599072599999
394 _081_:X 0.00277906435616
395 *37:8 0.0013757206736000002
396 *37:9 0.00022243310784000002
397 _083_:B 0.00032321291168
398 _097_:B 0.0011808118288000001
399 *37:13 0.00125525347356
400 _084_:D 0
401 _142_:B1 0
402 *37:15 0
403 *37:12 0
404 *37:11 0
*RES
552 *37:1 _084_:D 8.214285714285714
553 *37:2 *37:3 36.276785714285715
554 *37:2 *37:4 0.8214285714285714
555 *37:5 _142_:B1 0.9107142857142857
556 *37:6 *37:5 11.910714285714285
557 *37:7 *37:4 15.026785714285712
558 _081_:X *37:1 29.16071428571428
559 *37:8 _083_:B 14.375
560 *37:9 *37:10 2.4285714285714284
561 _083_:B *37:11 3.2857142857142856
562 _097_:B *37:12 12.321428571428571
563 *37:13 *37:14 14.267857142857142
564 _084_:D _084_:D 0
565 *37:1 *37:3 0
566 _142_:B1 _142_:B1 0
567 *37:6 *37:14 0
568 *37:15 *37:7 0
569 _081_:X _081_:X 0
570 _097_:B _097_:B 0
571 _083_:B _083_:B 0
572 *37:8 *37:9 0
573 *37:12 *37:10 0
574 *37:11 *37:13 0
*END

*D_NET *38 0.008367413745599999
*CONN
*I _147_:C I
*I _099_:A1 I
*I _083_:D I
*I _082_:X O
*CAP
405 *38:1 0.00019595053436
406 _147_:C 4.017137184e-05
407 *38:4 0.0005181217564799999
408 *38:5 0.00088449744484
409 _099_:A1 4.017137184e-05
410 *38:7 0.00114183005984
411 _082_:X 0.00172655659424