*SPEF "IEEE 1481-1998"
*DESIGN "vm"
*DATE "Sun May 02 09:28:54 2021"
*VENDOR "AUC CSCE Department"
*PROGRAM "SPEF Extractor"
*VERSION "1.0"
*DESIGN_FLOW "PIN_CAP NONE"
*DIVIDER /
*DELIMITER :
*BUS_DELIMITER []
*T_UNIT 1.00000 NS
*C_UNIT 1.00000 PF
*R_UNIT 1.00000 OHM
*L_UNIT 1.00000 HENRY


*NAME_MAP
*0 change[0]
*1 change[1]
*2 choice[0]
*3 choice[1]
*4 choice[2]
*5 clk
*6 coin[0]
*7 coin[1]
*8 out[0]
*9 out[1]
*10 out[2]
*11 reset
*12 _000_
*13 _001_
*14 _002_
*15 _003_
*16 _004_
*17 _005_
*18 _006_
*19 _007_
*20 _008_
*21 _009_
*22 _010_
*23 _011_
*24 _012_
*25 _013_
*26 _014_
*27 _015_
*28 _016_
*29 _017_
*30 _018_
*31 _019_
*32 _020_
*33 _021_
*34 _022_
*35 _023_
*36 _024_
*37 _025_
*38 _026_
*39 _027_
*40 _028_
*41 _029_
*42 _030_
*43 _031_
*44 _032_
*45 _033_
*46 _034_
*47 _035_
*48 _036_
*49 _037_
*50 _038_
*51 _039_
*52 _040_
*53 _041_
*54 _042_
*55 _043_
*56 _044_
*57 _045_
*58 _046_
*59 _047_
*60 _048_
*61 _049_
*62 _050_
*63 _051_
*64 _052_
*65 _053_
*66 _054_
*67 _055_
*68 _056_
*69 _057_
*70 _058_
*71 _059_
*72 _060_
*73 _061_
*74 _062_
*75 _063_
*76 _064_
*77 _065_
*78 _066_
*79 _067_
*80 _068_
*81 _069_
*82 _070_
*83 _071_
*84 _072_
*85 _073_
*86 _074_
*87 state\[0\]
*88 state\[1\]
*89 state\[2\]
*90 state\[3\]
*91 state\[4\]
*92 state\[5\]
*93 state\[6\]
*94 state\[7\]
*95 clknet_0_clk
*96 clknet_1_0_0_clk
*97 clknet_1_1_0_clk

*D_NET *0 0.00506190691356
*CONN
*P change[0] O
*I _161_:Q O
*I _089_:A I
*CAP
0 *0:1 4.017137184e-05
1 *0:2 0.0004791399875199999
2 *0:3 0.00231455641276
3 *0:5 0.0015421609977
4 *0:4 0.0006858781437400002
5 _089_:A 0
6 _161_:Q 0
7 *0:7 0
*RES
0 *0:1 _089_:A 0.30357142857142855
1 *0:2 *0:1 4.928571428571428
2 *0:3 *0:4 26.41071428571428
3 *0:5 *0:6 2.774566666666667
4 *0:4 *0:7 7.741071428571428
5 _089_:A _089_:A 0
6 *0:2 *0:4 0
7 _161_:Q _161_:Q 0
8 _161_:Q *0:3 0
9 *0:7 *0:5 0
*END

*D_NET *1 0.008322662816920002
*CONN
*P change[1] O
*I _162_:Q O
*I _146_:A I
*CAP
8 *1:1 4.017137184e-05
9 *1:3 0.00055710352544
10 _146_:A 4.017137184e-05
11 *1:2 0.0014147024425599998
12 *1:5 0.0017786650388999998
13 _162_:Q 0.00016728583584
14 *1:8 0.00059318913656
15 *1:9 0.0037313740939400007
16 *1:4 0
17 *1:10 0
18 *1:7 0
*RES
10 *1:1 *1:2 0.30357142857142855
11 *1:3 *1:1 5.75
12 _146_:A *1:3 0.30357142857142855
13 *1:2 *1:4 14.785714285714283
14 *1:5 *1:6 3.2069666666666667
15 _162_:Q *1:7 1.6428571428571428
16 *1:8 *1:9 6.678571428571428
17 *1:9 *1:10 42.651785714285715
18 _146_:A _146_:A 0
19 *1:4 *1:8 0
20 *1:10 *1:5 0
21 _162_:Q _162_:Q 0
22 *1:7 *1:9 0
*END

*D_NET *2 0.008322629796480002
*CONN
*P choice[0] I
*I _140_:A3 I
*I _134_:D I
*I _125_:A I
*CAP
19 *2:1 0.0015815783379000002
20 *2:3 4.017137184e-05
21 *2:4 0.00040117644959999997
22 *2:5 0.0004078111222
23 *2:7 0.00024524937376
24 _134_:D 4.017137184e-05
25 *2:9 0.0002062676048
26 *2:10 0.00038132854871999994
27 *2:12 0.0016485930563200002
28 *2:14 0.00014298538739999998
29 *2:16 0.00016847543872000001
30 _125_:A 0.00032321291168
31 *2:11 0.0010963580326800002
32 *2:20 0.0016392507890200002
33 _140_:A3 0
34 *2:8 0
35 *2:13 0
36 *2:17 0
37 *2:18 0
*RES
23 *2:1 *2:2 2.8466333333333336
24 *2:3 _140_:A3 0.30357142857142855
25 *2:4 *2:3 4.107142857142857
26 *2:5 *2:6 4.553571428571428
27 *2:7 *2:8 2.464285714285714
28 _134_:D _134_:D 0.30357142857142855
29 *2:9 _134_:D 2.0535714285714284
30 *2:10 *2:11 4.249999999999999
31 *2:12 *2:13 17.25
32 *2:14 *2:15 1.5178571428571426
33 *2:16 *2:17 1.232142857142857
34 *2:16 *2:3 0.30357142857142855
35 _125_:A *2:18 3.2857142857142856
36 *2:11 *2:19 12.44642857142857
37 *2:20 *2:21 18.669642857142854
38 *2:20 *2:2 0
39 _140_:A3 _140_:A3 0
40 *2:4 *2:6 0
41 *2:8 *2:5 0
42 *2:7 *2:21 0
43 _134_:D _134_:D 0
44 *2:9 *2:11 0
45 *2:13 *2:10 0
46 *2:12 *2:14 0
47 *2:17 *2:15 0
48 _125_:A _125_:A 0
49 *2:18 *2:19 0
*END

*D_NET *3 0.00828224205586
*CONN
*P choice[1] I
*I _140_:A2 I
*I _135_:A I
*I _134_:B I
*I _131_:B I
*I _126_:B I
*CAP
38 _131_:B 0.0003621946806399999
39 *3:2 0.00075208457744
40 *3:4 0.00035484597524
41 _140_:A2 4.017137184e-05
42 *3:5 0.00016728583584
43 *3:7 0.00019595053436
44 *3:9 0.00082997590816
45 *3:10 7.346055096e-05
46 *3:11 0.00090793944608
47 *3:13 0.00011650281392
48 *3:15 5.034052896000001e-05
49 *3:16 0.0010301515989800001
50 _135_:A 0.00024524937376
51 *3:19 0.00039456983545999995
52 *3:20 0.0015027436575
53 *3:22 0.00125877536672
54 *3:1 0
55 _126_:B 0
56 *3:6 0
57 *3:12 0
58 _134_:B 0
59 *3:23 0
60 *3:25 0
61 *3:18 0
*RES
50 _131_:B *3:1 3.6964285714285707
51 *3:2 *3:3 8.499999999999998
52 *3:4 *3:2 3.946428571428571
53 _140_:A2 *3:5 0.30357142857142855
54 *3:5 *3:6 1.6428571428571428
55 *3:7 *3:8 2.1249999999999996
56 *3:9 *3:10 8.625
57 *3:10 *3:11 48.79999999999999
58 *3:11 *3:12 9.446428571428571
59 *3:13 *3:14 1.2142857142857142
60 *3:15 _134_:B 0.4107142857142857
61 *3:16 *3:17 11.687499999999998
62 _135_:A *3:18 2.464285714285714
63 *3:19 *3:16 4.4017857142857135
64 *3:20 *3:21 2.7025
65 *3:22 *3:23 13.142857142857142
66 _131_:B _131_:B 0
67 *3:1 *3:2 0
68 _126_:B _126_:B 0
69 _126_:B *3:3 0
70 *3:22 *3:4 0
71 _140_:A2 _140_:A2 0
72 *3:6 *3:7 0
73 *3:9 *3:8 0
74 *3:10 *3:10 0
75 *3:11 *3:11 0
76 *3:12 *3:14 0
77 *3:15 *3:13 0
78 _134_:B _134_:B 0
79 *3:23 *3:24 0
80 *3:16 *3:21 0
81 *3:25 *3:17 0
82 _135_:A _135_:A 0
83 *3:18 *3:19 0
*END

*D_NET *4 0.008733857633679998
*CONN
*P choice[2] I
*I _140_:B1 I
*I _136_:A I
*I _129_:A I
*I _126_:A I
*CAP
62 _126_:A 0.0005181217564799999
63 *4:2 0.00024643897664
64 *4:3 0.0019438003840400002
65 *4:5 0.00016728583584
66 *4:7 0.00071422020416
67 _140_:B1 4.017137184e-05
68 *4:8 0.00032321291168
69 *4:10 0.00011650281392
70 *4:12 0.0004791399875199999
71 *4:14 0.00149266598048
72 *4:16 0.0009903182348999999
73 *4:18 0.00057994784982
74 *4:20 0.00067404883232
75 *4:21 4.017137184e-05
76 *4:22 0.0004078111222
77 *4:1 0
78 _129_:A 0
79 _136_:A 0
80 *4:9 0
81 *4:13 0
*RES
84 _126_:A *4:1 5.339285714285714
85 *4:2 _129_:A 2.0535714285714284
86 *4:3 *4:4 22.160714285714285
87 *4:5 *4:6 1.6428571428571428
88 *4:7 *4:6 0.30357142857142855
89 *4:7 _136_:A 6.982142857142857
90 _140_:B1 *4:8 0.30357142857142855
91 *4:8 *4:9 3.2857142857142856
92 *4:10 *4:11 1.2142857142857142
93 *4:12 *4:13 4.928571428571428
94 *4:14 *4:15 15.607142857142856
95 *4:2 *4:15 0.30357142857142855
96 *4:16 *4:17 1.7656333333333334
97 *4:18 *4:19 6.5267857142857135
98 *4:20 *4:21 6.982142857142857
99 *4:21 *4:14 0.30357142857142855
100 *4:22 *4:23 4.553571428571428
101 _126_:A _126_:A 0
102 *4:1 *4:23 0
103 _129_:A _129_:A 0
104 *4:2 *4:4 0
105 *4:5 *4:3 0
106 _136_:A _136_:A 0
107 _140_:B1 _140_:B1 0
108 *4:9 *4:10 0
109 *4:12 *4:11 0
110 *4:13 *4:24 0
111 *4:14 *4:22 0
112 *4:18 *4:17 0
113 *4:20 *4:19 0
*END

*D_NET *5 0.0035175146234200003
*CONN
*P clk I
*I clkbuf_0_clk:A I
*CAP
82 *5:1 0.00071303060128
83 *5:2 0.0028044840221400002
84 clkbuf_0_clk:A 0
*RES
114 *5:1 clkbuf_0_clk:A 7.3928571428571415
115 *5:2 *5:3 32.02678571428571
116 *5:1 *5:3 0
117 clkbuf_0_clk:A clkbuf_0_clk:A 0
*END

*D_NET *6 0.006743663407879999
*CONN
*P coin[0] I
*I _095_:A I
*I _090_:A I
*I _078_:A I
*CAP
85 *6:1 0.0008977387315800001
86 *6:3 0.0005961448329
87 *6:5 0.00032321291168
88 *6:6 4.017137184e-05
89 *6:7 0.0005181217564799999
90 *6:8 0.00022243310784000002
91 *6:10 0.0009379416608
92 *6:13 0.00024524937376
93 *6:14 0.00083153229788
94 _078_:A 0.00012830406688
95 *6:17 0.0010169103122400001
96 _090_:A 0.000985902984
97 *6:2 0
98 _095_:A 0
99 *6:11 0
100 *6:19 0
101 *6:16 0
102 *6:20 0
*RES
118 *6:1 *6:2 10.169642857142856
119 *6:3 *6:4 1.0449666666666666
120 *6:5 _095_:A 3.2857142857142856
121 *6:6 *6:5 0.30357142857142855
122 *6:7 *6:6 5.339285714285714
123 *6:8 *6:9 2.4285714285714284
124 *6:10 *6:11 9.035714285714285
125 *6:10 *6:12 0.6071428571428571
126 *6:13 *6:12 2.464285714285714
127 *6:14 *6:15 9.410714285714285
128 _078_:A *6:16 1.232142857142857
129 *6:17 *6:18 11.535714285714285
130 _090_:A *6:19 10.267857142857142
131 _090_:A _090_:A 0
132 _090_:A *6:1 0
133 *6:2 *6:4 0
134 _095_:A _095_:A 0
135 *6:7 *6:9 0
136 *6:11 *6:8 0
137 *6:13 *6:14 0
138 *6:19 *6:15 0
139 _078_:A _078_:A 0
140 *6:16 *6:17 0
141 *6:20 *6:18 0
*END

*D_NET *7 0.00668624841352
*CONN
*P coin[1] I
*I _091_:A I
*I _078_:B I
*CAP
103 *7:1 0.00028423114272
104 *7:2 0.00010326152718000001
105 *7:4 0.0003202234515
106 *7:6 0.00120871579604
107 *7:8 0.0001822627608
108 *7:10 0.0010169103122400001
109 *7:12 0.0004778928123
110 *7:14 0.00154656178184
111 *7:16 0.0014633263173
112 *7:9 8.286251159999999e-05
113 _091_:A 0
114 *7:3 0
115 _078_:B 0
116 *7:18 0
117 *7:15 0
*RES
142 *7:1 _091_:A 2.875
143 *7:2 *7:3 1.0624999999999998
144 *7:4 *7:5 0.5405000000000001
145 *7:6 *7:7 2.450266666666667
146 *7:8 *7:9 0.28826666666666667
147 *7:10 *7:11 11.535714285714285
148 *7:12 *7:13 0.8287666666666667
149 *7:14 *7:15 17.607142857142854
150 *7:16 *7:17 2.6304333333333334
151 *7:9 *7:13 0.10653333333333334
152 _091_:A _091_:A 0
153 *7:1 *7:2 0
154 *7:3 *7:5 0
155 *7:4 *7:6 0
156 *7:8 *7:7 0
157 _078_:B _078_:B 0
158 _078_:B *7:10 0
159 *7:18 *7:11 0
160 *7:14 *7:12 0
161 *7:15 *7:17 0
*END

*D_NET *8 0.007820274057600001
*CONN
*P out[0] O
*I _158_:Q O
*I _122_:B1 I
*I _118_:A I
*CAP
118 *8:1 0.0014633263173
119 *8:3 0.00015622667414000004
120 *8:5 0.00075201237024
121 _158_:Q 0.00012830406688
122 *8:8 0.00044097171957999993
123 _122_:B1 6.898398368e-05
124 *8:11 0.0013757206736000002
125 *8:9 0.0009904277387600001
126 *8:14 0.00056670656308
127 *8:16 0.0018775939503400002
128 *8:6 0
129 *8:7 0
130 *8:12 0
131 _118_:A 0
132 *8:17 0
*RES
162 *8:1 *8:2 2.6304333333333334
163 *8:3 *8:4 1.669642857142857
164 *8:5 *8:6 7.803571428571428
165 _158_:Q *8:7 1.232142857142857
166 *8:8 *8:9 4.4017857142857135
167 *8:8 *8:10 0.4107142857142857
168 _122_:B1 *8:11 0.6071428571428571
169 *8:11 *8:12 14.375
170 *8:9 *8:13 11.232142857142856
171 *8:14 *8:15 6.374999999999999
172 *8:16 *8:10 21.40178571428571
173 *8:3 *8:1 0
174 *8:6 *8:4 0
175 *8:5 *8:16 0
176 _158_:Q _158_:Q 0
177 *8:7 *8:9 0
178 _122_:B1 _122_:B1 0
179 *8:12 *8:13 0
180 _118_:A _118_:A 0
181 _118_:A *8:15 0
182 *8:17 *8:14 0
*END

*D_NET *9 0.007170326717460001
*CONN
*P out[1] O
*I _159_:Q O
*I _109_:B1 I
*CAP
133 *9:1 0.0016998303585
134 *9:3 2.3813806740000006e-05
135 *9:5 0.0005960852944
136 *9:7 4.017137184e-05
137 *9:8 0.0010248847529600001
138 *9:9 0.00051374141612
139 _159_:Q 0.00075201237024
140 _109_:B1 4.017137184e-05
141 *9:12 0.00028423114272
142 *9:14 0.0021953848321000003
143 *9:4 0
144 *9:6 0
145 *9:11 0
146 *9:13 0
*RES
183 *9:1 *9:2 3.0628333333333337
184 *9:3 *9:4 0.15178571428571427
185 *9:5 *9:6 6.160714285714286
186 *9:7 *9:5 0.30357142857142855
187 *9:8 *9:7 10.678571428571429
188 *9:9 *9:10 5.767857142857142
189 _159_:Q *9:11 7.803571428571428
190 _109_:B1 *9:12 0.30357142857142855
191 *9:12 *9:13 2.875
192 *9:14 *9:15 25.044642857142854
193 *9:4 *9:1 0
194 *9:6 *9:3 0
195 *9:8 *9:10 0
196 *9:11 *9:9 0
197 _159_:Q _159_:Q 0
198 _109_:B1 _109_:B1 0
199 *9:13 *9:15 0
200 *9:14 *9:16 0
*END

*D_NET *10 0.0033153814231400005
*CONN
*P out[2] O
*I _160_:Q O
*I _106_:B1 I
*CAP
147 *10:1 0.00044015821855999997
148 *10:2 0.00043429369568000003
149 *10:4 0.00082997590816
150 _106_:B1 4.017137184e-05
151 *10:6 0.0010494442452000001
152 *10:8 8.286251159999999e-05
153 *10:9 0.00043847547209999995
154 _160_:Q 0
155 *10:5 0
156 *10:10 0
*RES
201 *10:1 _160_:Q 4.517857142857142
202 *10:2 *10:3 4.857142857142857
203 *10:4 *10:5 8.625
204 _106_:B1 *10:4 0.30357142857142855
205 *10:6 *10:7 1.8737333333333337
206 *10:8 *10:6 0.10653333333333334
207 *10:9 *10:8 0.7567
208 _160_:Q _160_:Q 0
209 *10:1 *10:3 0
210 *10:5 *10:2 0
211 _106_:B1 _106_:B1 0
212 *10:10 *10:9 0
*END

*D_NET *11 0.00890990238674
*CONN
*P reset I
*I _143_:A I
*I _141_:C I
*I _107_:A I
*I _075_:A I
*CAP
157 *11:1 0.00053366072676
158 *11:4 0.0010698754592
159 *11:5 0.0006991194304800001
160 *11:7 0.0012977571356799999
161 *11:9 0.00035484597524
162 _141_:C 0.0010015804345600001
163 *11:12 0.00018549277542
164 *11:14 0.0010638665219200002
165 *11:16 4.640188412000001e-05
166 _107_:A 8.932229792e-05
167 *11:19 5.029638022e-05
168 *11:21 0.0010888615854
169 *11:23 0.00105663417246
170 *11:6 4.640188412000001e-05
171 *11:25 2.3813806740000006e-05
172 *11:27 4.43020701e-05
173 *11:29 0.0002576698464
174 _075_:A 0
175 *11:8 0
176 *11:11 0
177 *11:15 0
178 *11:18 0
179 *11:24 0
180 _143_:A 0
*RES
213 *11:1 *11:2 5.4642857142857135
214 *11:1 *11:3 0.4107142857142857
215 *11:4 *11:3 12.14285714285714
216 *11:5 *11:6 7.892857142857142
217 *11:7 *11:8 13.553571428571427
218 *11:9 *11:10 3.946428571428571
219 _141_:C *11:11 10.433035714285714
220 *11:12 *11:13 1.0624999999999998
221 *11:14 *11:15 11.089285714285714
222 *11:16 *11:17 0.4107142857142857
223 _107_:A *11:18 0.8214285714285714
224 *11:19 *11:20 0.45535714285714285
225 *11:21 *11:22 1.9458000000000002
226 *11:23 *11:24 11.991071428571427
227 *11:6 *11:23 0.4107142857142857
228 *11:25 *11:26 0.15178571428571427
229 *11:27 *11:28 0.036033333333333334
230 *11:29 *11:27 0.42613333333333336
231 *11:12 *11:2 0.8214285714285714
232 _075_:A _075_:A 0
233 _075_:A *11:6 0
234 *11:8 *11:5 0
235 *11:7 *11:10 0
236 *11:11 *11:9 0
237 _141_:C _141_:C 0
238 *11:15 *11:13 0
239 *11:14 *11:17 0
240 _107_:A _107_:A 0
241 *11:18 *11:20 0
242 *11:19 *11:21 0
243 *11:24 *11:22 0
244 _143_:A _143_:A 0
245 _143_:A *11:26 0
246 *11:25 *11:28 0
*END

*D_NET *12 0.00394094592516
*CONN
*I _151_:D I
*I _133_:X O
*CAP
181 *12:1 0.00121979359776
182 *12:2 0.0016407043481999999
183 *12:4 0.00018270924762000003
184 *12:6 0.0008977387315800001
185 _133_:X 0
186 *12:5 0
187 _151_:D 0
*RES
247 *12:1 _133_:X 12.732142857142856
248 *12:2 *12:3 2.9547333333333334
249 *12:4 *12:5 1.9732142857142856
250 *12:6 *12:7 10.169642857142856
251 *12:1 *12:7 0
252 _133_:X _133_:X 0
253 *12:6 *12:3 0
254 *12:5 *12:2 0
255 _151_:D _151_:D 0
256 _151_:D *12:4 0
*END

*D_NET *13 0.00217455167964
*CONN
*I _152_:D I
*I _131_:X O
*CAP
188 *13:1 0.00125525347356
189 *13:3 0.00032321291168
190 _131_:X 0.0005960852944
191 *13:4 0
192 _152_:D 0
*RES
257 *13:1 *13:2 14.267857142857142
258 *13:3 _152_:D 3.2857142857142856
259 _131_:X *13:4 6.160714285714286
260 _131_:X _131_:X 0
261 *13:4 *13:1 0
262 *13:3 *13:2 0
263 _152_:D _152_:D 0
*END

*D_NET *14 0.00372993375804
*CONN
*I _154_:D I
*I _128_:X O
*CAP
193 _128_:X 4.017137184e-05
194 *14:1 0.00044015821855999997
195 *14:3 0.0016789746492400003
196 *14:5 0.0015706295183999998
197 *14:2 0
198 _154_:D 0
*RES
264 _128_:X *14:1 0.30357142857142855
265 *14:1 *14:2 4.517857142857142
266 *14:3 *14:4 19.125
267 *14:5 _154_:D 16.428571428571427
268 _128_:X _128_:X 0
269 *14:2 *14:3 0
270 *14:5 *14:4 0
271 _154_:D _154_:D 0
*END

*D_NET *15 0.00083101759772
*CONN
*I _155_:D I
*I _132_:X O
*CAP
199 _132_:X 0.00063506706336
200 *15:2 0.00019595053436
201 *15:1 0
202 _155_:D 0
*RES
272 _132_:X *15:1 6.571428571428571
273 *15:2 *15:3 2.1249999999999996
274 _132_:X _132_:X 0
275 *15:1 *15:2 0
276 _155_:D _155_:D 0
277 _155_:D *15:3 0
*END

*D_NET *16 0.0029068640623199997
*CONN
*I _156_:D I
*I _134_:X O
*CAP
203 _134_:X 4.017137184e-05
204 *16:2 0.00086895767712
205 *16:3 0.0014406314879200001
206 _156_:D 0.00055710352544
207 *16:5 0
*RES
278 _134_:X *16:1 0.30357142857142855
279 *16:2 *16:1 9.035714285714285
280 *16:3 *16:4 16.392857142857142
281 _156_:D *16:5 5.75
282 _134_:X _134_:X 0
283 *16:2 *16:3 0
284 *16:5 *16:4 0
285 _156_:D _156_:D 0
*END

*D_NET *17 0.0012320953014
*CONN
*I _157_:D I
*I _136_:X O
*CAP
208 *17:1 0.00014298538739999998
209 *17:3 0.00040117644959999997
210 *17:5 0.0002753982548
211 _157_:D 0.0002062676048
212 *17:8 0.0002062676048
213 _136_:X 0
214 *17:4 0
215 *17:7 0
*RES
286 *17:1 *17:2 1.5178571428571426
287 *17:3 *17:4 4.107142857142857
288 *17:5 *17:6 3.035714285714285
289 _157_:D *17:7 2.0535714285714284
290 *17:8 _136_:X 2.0535714285714284
291 _136_:X _136_:X 0
292 *17:8 *17:1 0
293 *17:4 *17:2 0
294 *17:3 *17:5 0
295 *17:7 *17:6 0
296 _157_:D _157_:D 0
*END

*D_NET *18 0.00218756557528
*CONN
*I _150_:D I
*I _145_:X O
*CAP
216 *18:1 0.0018643526636000001
217 _150_:D 0.00032321291168
218 _145_:X 0
219 *18:3 0
*RES
297 *18:1 *18:2 21.25
298 _150_:D *18:3 3.2857142857142856
299 _145_:X _145_:X 0
300 _145_:X *18:1 0
301 *18:3 *18:2 0
302 _150_:D _150_:D 0
*END

*D_NET *19 0.0034316204914000004
*CONN
*I _153_:D I
*I _139_:X O
*CAP
220 *19:1 0.00071422020416
221 *19:2 0.00016946796088000002
222 *19:4 0.00086895767712
223 *19:6 0.0016789746492400003
224 _139_:X 0
225 *19:8 0
226 *19:5 0
227 _153_:D 0
*RES
303 *19:1 _139_:X 0.30357142857142855
304 *19:2 *19:3 1.8214285714285714
305 *19:4 *19:5 9.035714285714285
306 *19:6 *19:7 19.125
307 *19:1 *19:8 6.982142857142857
308 _139_:X _139_:X 0
309 *19:8 *19:3 0
310 *19:4 *19:2 0
311 *19:5 *19:7 0
312 _153_:D _153_:D 0
313 _153_:D *19:6 0
*END

*D_NET *20 0.00024524937376
*CONN
*I _158_:D I
*I _124_:X O
*CAP
228 _124_:X 0.00024524937376
229 _158_:D 0
*RES
314 _124_:X _158_:D 2.464285714285714
315 _124_:X _124_:X 0
316 _158_:D _158_:D 0
*END

*D_NET *21 0.0041517417944800005
*CONN
*I _159_:D I
*I _117_:X O
*CAP
230 *21:1 6.898398368e-05
231 *21:2 0.0010638665219200002
232 *21:4 0.00020745720768000002
233 *21:6 0.00087014728
234 *21:8 0.00059318913656
235 *21:10 0.00016728583584
236 _159_:D 0.0011808118288000001
237 *21:7 0
238 _117_:X 0
*RES
317 *21:1 *21:2 0.6071428571428571
318 *21:2 *21:3 11.089285714285714
319 *21:4 *21:3 0.30357142857142855
320 *21:4 *21:5 1.6428571428571428
321 *21:6 *21:5 0.30357142857142855
322 *21:6 *21:7 8.625
323 *21:8 *21:9 6.678571428571428
324 *21:10 _117_:X 1.6428571428571428
325 _159_:D *21:1 12.321428571428571
326 _159_:D _159_:D 0
327 *21:7 *21:8 0
328 *21:10 *21:9 0
329 _117_:X _117_:X 0
*END

*D_NET *22 0.0018814154418
*CONN
*I _160_:D I
*I _108_:Y O
*CAP
239 *22:1 0.00077856715092
240 _108_:Y 0.00110284829088
241 _160_:D 0
242 *22:3 0
*RES
330 *22:1 *22:2 8.803571428571427
331 _108_:Y *22:3 11.5
332 _160_:D _160_:D 0
333 _160_:D *22:1 0
334 *22:3 *22:2 0
335 _108_:Y _108_:Y 0
*END

*D_NET *23 0.0019900686885200003
*CONN
*I _161_:D I
*I _100_:X O
*CAP
243 *23:1 0.0009904277387600001
244 *23:3 8.932229792e-05
245 *23:4 4.017137184e-05
246 *23:5 0.00082997590816
247 _100_:X 4.017137184e-05
248 _161_:D 0
*RES
336 *23:1 *23:2 11.232142857142856
337 *23:3 *23:4 0.8214285714285714
338 *23:4 *23:5 0.30357142857142855
339 *23:5 _100_:X 8.625
340 _100_:X _100_:X 0.30357142857142855
341 _161_:D _161_:D 0
342 _161_:D *23:1 0
343 *23:3 *23:2 0
344 _100_:X _100_:X 0
*END

*D_NET *24 0.00280060261272
*CONN
*I _162_:D I
*I _149_:X O
*CAP
249 *24:1 0.00016728583584
250 *24:2 0.00207621325144
251 _149_:X 0.00055710352544
252 _162_:D 0
253 *24:4 0
*RES
345 *24:1 _162_:D 1.6428571428571428
346 *24:2 *24:3 23.678571428571427
347 _149_:X *24:4 5.75
348 _162_:D _162_:D 0
349 *24:1 *24:2 0
350 *24:4 *24:3 0
351 _149_:X _149_:X 0
*END

*D_NET *25 0.00309075789416
*CONN
*I _143_:C I
*I _142_:Y O
*CAP
254 *25:1 0.0010260743558400001
255 *25:3 0.00154656178184
256 *25:5 0.0005181217564799999
257 _142_:Y 0
258 *25:2 0
259 _143_:C 0
*RES
352 *25:1 _142_:Y 0.30357142857142855
353 *25:1 *25:2 10.267857142857142
354 *25:3 *25:4 17.607142857142854
355 *25:5 _143_:C 5.339285714285714
356 _142_:Y _142_:Y 0
357 *25:2 *25:3 0
358 *25:5 *25:4 0
359 _143_:C _143_:C 0
*END

*D_NET *26 0.0013202031158400002
*CONN
*I _144_:A I
*I _143_:X O
*CAP
260 _143_:X 0.00067404883232
261 *26:2 0.00064615428352
262 *26:1 0
263 _144_:A 0
*RES
360 _143_:X *26:1 6.982142857142857
361 *26:2 *26:3 7.285714285714286
362 _143_:X _143_:X 0
363 *26:1 *26:2 0
364 _144_:A _144_:A 0
365 _144_:A *26:3 0
*END

*D_NET *27 0.0028973332318799998
*CONN
*I _145_:C1 I
*I _144_:Y O
*CAP
264 _145_:C1 0.00012830406688
265 *27:2 0.00162600950228
266 *27:4 4.017137184e-05
267 *27:5 0.00110284829088
268 *27:1 0
269 _144_:Y 0
*RES
366 _145_:C1 *27:1 1.232142857142857
367 *27:2 *27:3 18.51785714285714
368 *27:4 *27:5 0.30357142857142855
369 *27:5 _144_:Y 11.5
370 _145_:C1 _145_:C1 0
371 *27:1 *27:2 0
372 *27:4 *27:3 0
373 _144_:Y _144_:Y 0
*END

*D_NET *28 0.0029040792417600004
*CONN
*I _149_:B I
*I _146_:X O
*CAP
270 *28:1 0.00024524937376
271 *28:2 0.0026588298680000006
272 _146_:X 0
273 _149_:B 0
*RES
374 *28:1 _149_:B 2.464285714285714
375 *28:2 *28:3 30.357142857142854
376 _146_:X _146_:X 0
377 _146_:X *28:2 0
378 *28:1 *28:3 0
379 _149_:B _149_:B 0
*END

*D_NET *29 0.00228373232688
*CONN
*I _148_:B I
*I _147_:X O
*CAP
274 *29:1 0.00075208457744
275 _147_:X 0.0015316477494400002
276 *29:3 0
277 _148_:B 0
*RES
380 *29:1 *29:2 8.499999999999998
381 _147_:X *29:3 16.017857142857142
382 _147_:X _147_:X 0
383 *29:3 *29:2 0
384 _148_:B _148_:B 0
385 _148_:B *29:1 0
*END

*D_NET *30 0.00077691201528
*CONN
*I _149_:C I
*I _148_:X O
*CAP
278 _149_:C 0.00024524937376
279 *30:2 0.00016946796088000002
280 *30:4 0.0003621946806399999
281 *30:1 0
282 _148_:X 0
*RES
386 _149_:C *30:1 2.464285714285714
387 *30:2 *30:3 1.8214285714285714
388 *30:4 _148_:X 3.6964285714285707
389 _149_:C _149_:C 0
390 *30:1 *30:2 0
391 *30:4 *30:3 0
392 _148_:X _148_:X 0
*END

*D_NET *31 0.005357980559840001
*CONN
*I _130_:A I
*I _076_:A I
*I _075_:Y O
*CAP
283 *31:1 0.00063506706336
284 *31:2 5.034052896000001e-05
285 *31:3 0.00104339288572
286 *31:5 0.00020745720768000002
287 *31:8 0.0004791399875199999
288 *31:9 4.017137184e-05
289 *31:10 0.0012209832006400002
290 _130_:A 0.0004791399875199999
291 *31:4 0.0012022883266000002
292 _076_:A 0
293 _075_:Y 0
294 *31:6 0
*RES
393 *31:1 _076_:A 6.571428571428571
394 *31:2 _075_:Y 0.4107142857142857
395 *31:3 *31:4 11.839285714285714
396 *31:5 *31:6 1.6428571428571428
397 *31:5 *31:7 0.30357142857142855
398 *31:8 *31:7 4.928571428571428
399 *31:9 *31:8 0.30357142857142855
400 *31:10 *31:9 12.321428571428571
401 *31:10 *31:11 0.30357142857142855
402 _130_:A *31:11 4.928571428571428
403 *31:4 *31:12 13.660714285714285
404 _076_:A _076_:A 0
405 *31:1 *31:4 0
406 _075_:Y _075_:Y 0
407 *31:2 *31:3 0
408 *31:6 *31:12 0
409 _130_:A _130_:A 0
*END

*D_NET *32 0.00627029684736
*CONN
*I _138_:A I
*I _137_:C I
*I _133_:C I
*I _132_:C I
*I _077_:A I
*I _076_:X O
*CAP
295 *32:1 0.00040117644959999997
296 *32:2 0.0019438003840400002
297 _132_:C 0.0009469212150399999
298 *32:5 0.00024891568132000004
299 *32:7 4.017137184e-05
300 *32:8 5.034052896000001e-05
301 *32:9 4.017137184e-05
302 _076_:X 0.00055710352544
303 *32:10 0.00071303060128
304 *32:6 0.0010963580326800002
305 _133_:C 8.932229792e-05
306 *32:11 0.00014298538739999998
307 *32:4 0
308 _077_:A 0
309 *32:14 0
310 _137_:C 0
311 _138_:A 0
312 *32:12 0
*RES
410 *32:1 _076_:X 4.107142857142857
411 *32:2 *32:3 22.160714285714285
412 _132_:C *32:4 9.857142857142856
413 *32:5 *32:6 2.7321428571428568
414 *32:7 _137_:C 0.30357142857142855
415 *32:8 *32:7 0.4107142857142857
416 *32:9 *32:8 0.30357142857142855
417 _076_:X *32:9 5.75
418 *32:10 _138_:A 7.3928571428571415
419 *32:6 *32:11 12.44642857142857
420 _133_:C *32:12 0.8214285714285714
421 *32:11 *32:13 1.5178571428571426
422 _076_:X _076_:X 0
423 *32:1 *32:3 0
424 *32:4 *32:2 0
425 _132_:C _132_:C 0
426 _077_:A _077_:A 0
427 _077_:A *32:6 0
428 *32:14 *32:5 0
429 _137_:C _137_:C 0
430 _138_:A _138_:A 0
431 *32:10 *32:11 0
432 _133_:C _133_:C 0
433 *32:12 *32:13 0
*END

*D_NET *33 0.00581982339916
*CONN
*I _149_:A I
*I _128_:A I
*I _124_:A I
*I _117_:A I
*I _100_:A I
*I _077_:X O
*CAP
313 *33:1 8.932229792e-05
314 *33:2 0.00035484597524
315 *33:4 8.932229792e-05
316 _077_:X 0.00020745720768000002
317 *33:6 0.0010698754592
318 *33:8 0.00040117644959999997
319 _124_:A 0.00024524937376
320 *33:10 0.00016946796088000002
321 *33:12 4.017137184e-05
322 *33:13 0.0011808118288000001
323 _128_:A 0.00055710352544
324 *33:15 0.00056670656308
325 _149_:A 0.0002062676048
326 *33:18 0.00051374141612
327 *33:20 0.00012830406688
328 _100_:A 0
329 _117_:A 0
330 *33:5 0
331 *33:9 0
332 *33:14 0
333 *33:17 0
*RES
434 *33:1 _100_:A 0.8214285714285714
435 *33:2 *33:3 3.946428571428571
436 *33:4 _117_:A 0.8214285714285714
437 _077_:X *33:5 1.6428571428571428
438 *33:6 *33:7 12.14285714285714
439 *33:8 *33:1 4.107142857142857
440 _124_:A *33:9 2.464285714285714
441 *33:10 *33:11 1.8214285714285714
442 *33:12 *33:13 0.30357142857142855
443 *33:13 _077_:X 12.321428571428571
444 _077_:X _077_:X 0.30357142857142855
445 _128_:A *33:14 5.75
446 *33:15 *33:16 6.374999999999999
447 _149_:A *33:17 2.0535714285714284
448 *33:18 *33:19 5.767857142857142
449 *33:20 *33:12 1.232142857142857
450 _100_:A _100_:A 0
451 *33:1 *33:3 0
452 *33:4 *33:2 0
453 _117_:A _117_:A 0
454 _077_:X _077_:X 0
455 *33:5 *33:7 0
456 *33:8 *33:6 0
457 _124_:A _124_:A 0
458 *33:9 *33:10 0
459 *33:12 *33:11 0
460 _128_:A _128_:A 0
461 *33:14 *33:15 0
462 _124_:A *33:16 0
463 _149_:A _149_:A 0
464 *33:17 *33:19 0
465 *33:20 *33:18 0
*END

*D_NET *34 0.007311174739060001
*CONN
*I _122_:B2 I
*I _109_:A2 I
*I _079_:A I
*I _078_:X O
*CAP
334 _122_:B2 4.017137184e-05
335 *34:1 0.00040117644959999997
336 *34:3 0.00011650281392
337 *34:5 0.0004791399875199999
338 *34:7 0.00022243310784000002
339 *34:9 0.00040117644959999997
340 *34:10 4.017137184e-05
341 *34:11 0.00121979359776
342 *34:12 6.898398368e-05
343 *34:13 0.00044134782144
344 *34:15 0.00036338428352000003
345 *34:17 7.67789537e-05
346 *34:19 0.00020197143089999993
347 *34:20 8.286251159999999e-05
348 *34:21 0.00028080611129999996
349 *34:23 0.00124201218682
350 _078_:X 8.932229792e-05
351 *34:25 0.0013214599072599999
352 *34:22 0.00022168010099999995
353 *34:2 0
354 *34:6 0
355 _109_:A2 0
356 _079_:A 0
357 *34:16 0
358 *34:18 0
359 *34:24 0
360 *34:26 0
*RES
466 _122_:B2 *34:1 0.30357142857142855
467 *34:1 *34:2 4.107142857142857
468 *34:3 *34:4 1.2142857142857142
469 *34:5 *34:6 4.928571428571428
470 *34:7 *34:8 2.4285714285714284
471 *34:9 *34:10 4.107142857142857
472 *34:10 *34:11 0.30357142857142855
473 *34:11 *34:12 12.732142857142856
474 *34:12 _109_:A2 0.6071428571428571
475 *34:13 _079_:A 0.30357142857142855
476 *34:13 *34:14 4.107142857142857
477 *34:15 *34:14 0.30357142857142855
478 *34:15 *34:16 3.2857142857142856
479 *34:17 *34:18 0.7589285714285713
480 *34:19 *34:20 0.3243
481 *34:20 *34:21 0.10653333333333334
482 *34:21 *34:22 0.4684333333333334
483 *34:23 *34:3 14.116071428571427
484 _078_:X *34:24 0.8214285714285714
485 *34:25 *34:26 15.026785714285712
486 *34:22 *34:27 0.3603333333333333
487 _122_:B2 _122_:B2 0
488 *34:2 *34:3 0
489 *34:5 *34:4 0
490 *34:6 *34:8 0
491 *34:9 *34:7 0
492 _109_:A2 _109_:A2 0
493 _079_:A _079_:A 0
494 *34:16 *34:17 0
495 *34:18 *34:19 0
496 *34:23 *34:22 0
497 _078_:X _078_:X 0
498 *34:24 *34:25 0
499 *34:26 *34:27 0
*END

*D_NET *35 0.00523635994664
*CONN
*I _114_:A I
*I _103_:A2 I
*I _087_:A1 I
*I _079_:Y O
*CAP
361 *35:1 0.00012830406688
362 *35:2 0.00059318913656
363 _079_:Y 0.00032321291168
364 *35:5 6.898398368e-05
365 *35:6 0.0026621190492800003
366 *35:7 4.640188412000001e-05
367 *35:9 0.0014141489144400001
368 _103_:A2 0
369 _114_:A 0
370 *35:4 0
371 _087_:A1 0
372 *35:11 0
*RES
500 *35:1 _114_:A 1.232142857142857
501 *35:2 *35:3 6.678571428571428
502 _079_:Y *35:4 3.2857142857142856
503 *35:5 _087_:A1 0.6071428571428571
504 *35:6 *35:5 27.928571428571427
505 *35:7 *35:8 0.4107142857142857
506 *35:9 *35:10 16.08928571428571
507 _103_:A2 _103_:A2 0
508 _103_:A2 *35:9 0
509 _114_:A _114_:A 0
510 *35:1 *35:2 0
511 *35:4 *35:3 0
512 _079_:Y _079_:Y 0
513 _087_:A1 _087_:A1 0
514 *35:6 *35:7 0
515 *35:11 *35:10 0
*END

*D_NET *36 0.010854235083339998
*CONN
*I _106_:A1 I
*I _102_:B I
*I _101_:B1 I
*I _097_:A I
*I _083_:A I
*I _080_:X O
*CAP
373 *36:1 0.00016946796088000002
374 *36:3 0.00019595053436
375 *36:5 0.00012830406688
376 *36:7 0.0005469020135000001
377 *36:10 5.029638022e-05
378 *36:11 0.0010638665219200002
379 *36:12 6.898398368e-05
380 *36:13 0.00043429369568000003
381 *36:15 0.00012830406688
382 *36:17 0.00061967171004
383 *36:19 0.0002062676048
384 _080_:X 4.017137184e-05
385 *36:20 0.00011932451264000001
386 *36:21 0.00028423114272
387 *36:23 0.00014298538739999998
388 *36:25 0.0010638665219200002
389 *36:27 0.00032836340175999997
390 *36:29 0.0005181217564799999
391 *36:31 0.00028863954154000006
392 *36:33 8.223124824000001e-05
393 *36:34 0.00012949366976
394 *36:37 0.00019728805056
395 *36:38 4.017137184e-05
396 *36:39 0.00071303060128
397 *36:40 0.00028423114272
398 *36:28 0.00136118376748
399 *36:42 0.0016485930563200002
400 _083_:A 0
401 _102_:B 0
402 *36:6 0
403 _097_:A 0
404 _106_:A1 0
405 *36:16 0
406 *36:22 0
407 *36:26 0
408 *36:30 0
409 _101_:B1 0
*RES
516 *36:1 *36:2 1.8214285714285714
517 *36:3 *36:4 2.1249999999999996
518 *36:5 *36:6 1.232142857142857
519 *36:7 *36:8 5.616071428571428
520 *36:7 *36:9 0.4107142857142857
521 *36:10 *36:9 0.45535714285714285
522 *36:11 *36:12 11.089285714285714
523 *36:12 _097_:A 0.6071428571428571
524 *36:13 *36:14 4.857142857142857
525 *36:15 *36:16 1.232142857142857
526 *36:17 *36:18 6.982142857142857
527 *36:19 _102_:B 2.0535714285714284
528 _080_:X _080_:X 0.30357142857142855
529 *36:20 _080_:X 0.4107142857142857
530 *36:20 *36:21 0.6071428571428571
531 *36:21 *36:22 2.875
532 *36:23 *36:24 1.5178571428571426
533 *36:25 *36:26 11.089285714285714
534 *36:27 *36:28 3.642857142857143
535 *36:29 *36:30 5.339285714285714
536 *36:31 *36:32 3.1874999999999996
537 *36:33 *36:31 0.8214285714285714
538 *36:34 *36:35 0.30357142857142855
539 *36:34 *36:36 0.8214285714285714
540 *36:37 *36:36 0.6071428571428571
541 *36:37 *36:38 1.232142857142857
542 *36:38 *36:39 0.30357142857142855
543 *36:39 *36:19 7.3928571428571415
544 *36:40 _101_:B1 2.875
545 *36:28 *36:41 15.482142857142856
546 *36:42 *36:35 17.25
547 *36:42 *36:1 0
548 _083_:A _083_:A 0
549 _083_:A *36:2 0
550 _102_:B _102_:B 0
551 _102_:B *36:4 0
552 *36:6 *36:3 0
553 *36:5 *36:8 0
554 *36:11 *36:10 0
555 _097_:A _097_:A 0
556 _106_:A1 _106_:A1 0
557 _106_:A1 *36:14 0
558 *36:16 *36:13 0
559 *36:15 *36:18 0
560 *36:19 *36:17 0
561 _080_:X _080_:X 0
562 *36:22 *36:23 0
563 *36:25 *36:24 0
564 *36:26 *36:28 0
565 *36:29 *36:27 0
566 *36:30 *36:32 0
567 _101_:B1 _101_:B1 0