* NGSPICE file created from vm.ext - technology: sky130A

* Black-box entry subcircuit for sky130_fd_sc_hd__decap_12 abstract view
.subckt sky130_fd_sc_hd__decap_12 VGND VNB VPB VPWR
.ends

* Black-box entry subcircuit for sky130_fd_sc_hd__decap_3 abstract view
.subckt sky130_fd_sc_hd__decap_3 VGND VNB VPB VPWR
.ends

* Black-box entry subcircuit for sky130_fd_sc_hd__decap_8 abstract view
.subckt sky130_fd_sc_hd__decap_8 VGND VNB VPB VPWR
.ends

* Black-box entry subcircuit for sky130_fd_sc_hd__and4_4 abstract view
.subckt sky130_fd_sc_hd__and4_4 A B C D VGND VNB VPB VPWR X
.ends

* Black-box entry subcircuit for sky130_fd_sc_hd__and2_4 abstract view
.subckt sky130_fd_sc_hd__and2_4 A B VGND VNB VPB VPWR X
.ends

* Black-box entry subcircuit for sky130_fd_sc_hd__tapvpwrvgnd_1 abstract view
.subckt sky130_fd_sc_hd__tapvpwrvgnd_1 VGND VPWR
.ends

* Black-box entry subcircuit for sky130_fd_sc_hd__and3_4 abstract view
.subckt sky130_fd_sc_hd__and3_4 A B C VGND VNB VPB VPWR X
.ends

* Black-box entry subcircuit for sky130_fd_sc_hd__or3_4 abstract view
.subckt sky130_fd_sc_hd__or3_4 A B C VGND VNB VPB VPWR X
.ends

* Black-box entry subcircuit for sky130_fd_sc_hd__fill_2 abstract view
.subckt sky130_fd_sc_hd__fill_2 VGND VNB VPB VPWR
.ends

* Black-box entry subcircuit for sky130_fd_sc_hd__o21a_4 abstract view
.subckt sky130_fd_sc_hd__o21a_4 A1 A2 B1 VGND VNB VPB VPWR X
.ends

* Black-box entry subcircuit for sky130_fd_sc_hd__decap_4 abstract view
.subckt sky130_fd_sc_hd__decap_4 VGND VNB VPB VPWR
.ends

* Black-box entry subcircuit for sky130_fd_sc_hd__fill_1 abstract view
.subckt sky130_fd_sc_hd__fill_1 VGND VNB VPB VPWR
.ends

* Black-box entry subcircuit for sky130_fd_sc_hd__decap_6 abstract view
.subckt sky130_fd_sc_hd__decap_6 VGND VNB VPB VPWR
.ends

* Black-box entry subcircuit for sky130_fd_sc_hd__buf_2 abstract view
.subckt sky130_fd_sc_hd__buf_2 A VGND VNB VPB VPWR X
.ends

* Black-box entry subcircuit for sky130_fd_sc_hd__a211o_4 abstract view
.subckt sky130_fd_sc_hd__a211o_4 A1 A2 B1 C1 VGND VNB VPB VPWR X
.ends

* Black-box entry subcircuit for sky130_fd_sc_hd__clkbuf_16 abstract view
.subckt sky130_fd_sc_hd__clkbuf_16 A VGND VNB VPB VPWR X
.ends

* Black-box entry subcircuit for sky130_fd_sc_hd__or2_4 abstract view
.subckt sky130_fd_sc_hd__or2_4 A B VGND VNB VPB VPWR X
.ends

* Black-box entry subcircuit for sky130_fd_sc_hd__inv_2 abstract view
.subckt sky130_fd_sc_hd__inv_2 A VGND VNB VPB VPWR Y
.ends

* Black-box entry subcircuit for sky130_fd_sc_hd__dfxtp_4 abstract view
.subckt sky130_fd_sc_hd__dfxtp_4 CLK D VGND VNB VPB VPWR Q
.ends

* Black-box entry subcircuit for sky130_fd_sc_hd__a21o_4 abstract view
.subckt sky130_fd_sc_hd__a21o_4 A1 A2 B1 VGND VNB VPB VPWR X
.ends

* Black-box entry subcircuit for sky130_fd_sc_hd__a21oi_4 abstract view
.subckt sky130_fd_sc_hd__a21oi_4 A1 A2 B1 VGND VNB VPB VPWR Y
.ends

* Black-box entry subcircuit for sky130_fd_sc_hd__or4_4 abstract view
.subckt sky130_fd_sc_hd__or4_4 A B C D VGND VNB VPB VPWR X
.ends

* Black-box entry subcircuit for sky130_fd_sc_hd__o32a_4 abstract view
.subckt sky130_fd_sc_hd__o32a_4 A1 A2 A3 B1 B2 VGND VNB VPB VPWR X
.ends

* Black-box entry subcircuit for sky130_fd_sc_hd__clkbuf_1 abstract view
.subckt sky130_fd_sc_hd__clkbuf_1 A VGND VNB VPB VPWR X
.ends

* Black-box entry subcircuit for sky130_fd_sc_hd__o22a_4 abstract view
.subckt sky130_fd_sc_hd__o22a_4 A1 A2 B1 B2 VGND VNB VPB VPWR X
.ends

.subckt vm change[0] change[1] choice[0] choice[1] choice[2] clk coin[0] coin[1] out[0]
+ out[1] out[2] reset VPWR VGND
XFILLER_22_166 VGND VGND VPWR VPWR sky130_fd_sc_hd__decap_12
XFILLER_22_133 VGND VGND VPWR VPWR sky130_fd_sc_hd__decap_12
XFILLER_36_214 VGND VGND VPWR VPWR sky130_fd_sc_hd__decap_3
XFILLER_13_111 VGND VGND VPWR VPWR sky130_fd_sc_hd__decap_8
XFILLER_12_32 VGND VGND VPWR VPWR sky130_fd_sc_hd__decap_12
XFILLER_5_184 VGND VGND VPWR VPWR sky130_fd_sc_hd__decap_12
XFILLER_23_86 VGND VGND VPWR VPWR sky130_fd_sc_hd__decap_12
X_131_ _134_/A choice[1] _134_/C _125_/Y VGND VGND VPWR VPWR _131_/X sky130_fd_sc_hd__and4_4
XFILLER_2_154 VGND VGND VPWR VPWR sky130_fd_sc_hd__decap_12
XFILLER_2_143 VGND VGND VPWR VPWR sky130_fd_sc_hd__decap_8
XFILLER_9_99 VGND VGND VPWR VPWR sky130_fd_sc_hd__decap_12
X_114_ _079_/Y _114_/B VGND VGND VPWR VPWR _114_/X sky130_fd_sc_hd__and2_4
XFILLER_20_32 VGND VGND VPWR VPWR sky130_fd_sc_hd__decap_12
XFILLER_6_23 VGND VGND VPWR VPWR sky130_fd_sc_hd__decap_8
XFILLER_6_56 VGND VGND VPWR VPWR sky130_fd_sc_hd__decap_12
XFILLER_13_3 VGND VGND VPWR VPWR sky130_fd_sc_hd__decap_12
XPHY_192 VGND VPWR sky130_fd_sc_hd__tapvpwrvgnd_1
XFILLER_31_123 VGND VGND VPWR VPWR sky130_fd_sc_hd__decap_8
XFILLER_31_112 VGND VGND VPWR VPWR sky130_fd_sc_hd__decap_8
XPHY_181 VGND VPWR sky130_fd_sc_hd__tapvpwrvgnd_1
XPHY_170 VGND VPWR sky130_fd_sc_hd__tapvpwrvgnd_1
XFILLER_22_145 VGND VGND VPWR VPWR sky130_fd_sc_hd__decap_8
XFILLER_13_123 VGND VGND VPWR VPWR sky130_fd_sc_hd__decap_12
XFILLER_18_215 VGND VGND VPWR VPWR sky130_fd_sc_hd__decap_3
XFILLER_12_22 VGND VGND VPWR VPWR sky130_fd_sc_hd__decap_8
XFILLER_12_44 VGND VGND VPWR VPWR sky130_fd_sc_hd__decap_12
XFILLER_5_196 VGND VGND VPWR VPWR sky130_fd_sc_hd__decap_12
X_130_ _075_/Y _128_/B _126_/X VGND VGND VPWR VPWR _134_/C sky130_fd_sc_hd__and3_4
XFILLER_23_98 VGND VGND VPWR VPWR sky130_fd_sc_hd__decap_12
XFILLER_2_166 VGND VGND VPWR VPWR sky130_fd_sc_hd__decap_12
XFILLER_18_32 VGND VGND VPWR VPWR sky130_fd_sc_hd__decap_12
X_113_ _084_/A _132_/D _081_/A VGND VGND VPWR VPWR _114_/B sky130_fd_sc_hd__or3_4
XFILLER_29_107 VGND VGND VPWR VPWR sky130_fd_sc_hd__decap_12
XFILLER_20_44 VGND VGND VPWR VPWR sky130_fd_sc_hd__decap_12
XFILLER_34_132 VGND VGND VPWR VPWR sky130_fd_sc_hd__decap_12
XFILLER_19_184 VGND VGND VPWR VPWR sky130_fd_sc_hd__decap_12
XFILLER_19_151 VGND VGND VPWR VPWR sky130_fd_sc_hd__decap_12
XFILLER_6_68 VGND VGND VPWR VPWR sky130_fd_sc_hd__decap_12
XFILLER_34_154 VGND VGND VPWR VPWR sky130_fd_sc_hd__decap_12
XFILLER_25_110 VGND VGND VPWR VPWR sky130_fd_sc_hd__decap_12
XPHY_193 VGND VPWR sky130_fd_sc_hd__tapvpwrvgnd_1
XPHY_182 VGND VPWR sky130_fd_sc_hd__tapvpwrvgnd_1
XPHY_171 VGND VPWR sky130_fd_sc_hd__tapvpwrvgnd_1
XPHY_160 VGND VPWR sky130_fd_sc_hd__tapvpwrvgnd_1
XFILLER_16_154 VGND VGND VPWR VPWR sky130_fd_sc_hd__decap_12
XFILLER_26_32 VGND VGND VPWR VPWR sky130_fd_sc_hd__decap_12
XFILLER_13_135 VGND VGND VPWR VPWR sky130_fd_sc_hd__decap_12
XFILLER_3_36 VGND VGND VPWR VPWR sky130_fd_sc_hd__decap_12
XFILLER_8_150 VGND VGND VPWR VPWR sky130_fd_sc_hd__decap_3
XFILLER_12_190 VGND VGND VPWR VPWR sky130_fd_sc_hd__decap_12
XFILLER_27_216 VGND VGND VPWR VPWR sky130_fd_sc_hd__fill_2
XFILLER_10_105 VGND VGND VPWR VPWR sky130_fd_sc_hd__decap_12
XFILLER_12_56 VGND VGND VPWR VPWR sky130_fd_sc_hd__decap_12
XFILLER_3_3 VGND VGND VPWR VPWR sky130_fd_sc_hd__decap_12
XFILLER_2_178 VGND VGND VPWR VPWR sky130_fd_sc_hd__decap_12
XFILLER_2_101 VGND VGND VPWR VPWR sky130_fd_sc_hd__decap_3
XFILLER_0_15 VGND VGND VPWR VPWR sky130_fd_sc_hd__decap_12
XFILLER_36_3 VGND VGND VPWR VPWR sky130_fd_sc_hd__decap_12
XFILLER_34_32 VGND VGND VPWR VPWR sky130_fd_sc_hd__decap_12
XFILLER_18_44 VGND VGND VPWR VPWR sky130_fd_sc_hd__decap_12
X_112_ _081_/B _111_/X _098_/A VGND VGND VPWR VPWR _112_/X sky130_fd_sc_hd__o21a_4
XFILLER_29_119 VGND VGND VPWR VPWR sky130_fd_sc_hd__decap_3
XFILLER_20_56 VGND VGND VPWR VPWR sky130_fd_sc_hd__decap_12
XFILLER_28_141 VGND VGND VPWR VPWR sky130_fd_sc_hd__decap_12
XFILLER_34_166 VGND VGND VPWR VPWR sky130_fd_sc_hd__decap_12
XFILLER_34_144 VGND VGND VPWR VPWR sky130_fd_sc_hd__decap_8
XFILLER_19_196 VGND VGND VPWR VPWR sky130_fd_sc_hd__decap_4
XFILLER_19_163 VGND VGND VPWR VPWR sky130_fd_sc_hd__decap_12
XFILLER_19_141 VGND VGND VPWR VPWR sky130_fd_sc_hd__fill_1
XFILLER_31_88 VGND VGND VPWR VPWR sky130_fd_sc_hd__decap_12
XFILLER_16_166 VGND VGND VPWR VPWR sky130_fd_sc_hd__decap_12
XPHY_194 VGND VPWR sky130_fd_sc_hd__tapvpwrvgnd_1
XPHY_183 VGND VPWR sky130_fd_sc_hd__tapvpwrvgnd_1
XPHY_172 VGND VPWR sky130_fd_sc_hd__tapvpwrvgnd_1
XPHY_161 VGND VPWR sky130_fd_sc_hd__tapvpwrvgnd_1
XPHY_150 VGND VPWR sky130_fd_sc_hd__tapvpwrvgnd_1
XFILLER_30_191 VGND VGND VPWR VPWR sky130_fd_sc_hd__decap_12
XFILLER_26_44 VGND VGND VPWR VPWR sky130_fd_sc_hd__decap_12
XFILLER_13_147 VGND VGND VPWR VPWR sky130_fd_sc_hd__decap_12
XFILLER_36_206 VGND VGND VPWR VPWR sky130_fd_sc_hd__decap_8
XFILLER_3_48 VGND VGND VPWR VPWR sky130_fd_sc_hd__decap_12
XFILLER_3_15 VGND VGND VPWR VPWR sky130_fd_sc_hd__decap_6
XFILLER_10_117 VGND VGND VPWR VPWR sky130_fd_sc_hd__decap_12
XFILLER_12_68 VGND VGND VPWR VPWR sky130_fd_sc_hd__decap_12
XFILLER_5_110 VGND VGND VPWR VPWR sky130_fd_sc_hd__decap_12
XFILLER_23_45 VGND VGND VPWR VPWR sky130_fd_sc_hd__decap_12
XFILLER_23_23 VGND VGND VPWR VPWR sky130_fd_sc_hd__decap_3
XFILLER_0_27 VGND VGND VPWR VPWR sky130_fd_sc_hd__decap_4
XFILLER_29_3 VGND VGND VPWR VPWR sky130_fd_sc_hd__decap_12
XFILLER_34_44 VGND VGND VPWR VPWR sky130_fd_sc_hd__decap_12
XFILLER_20_212 VGND VGND VPWR VPWR sky130_fd_sc_hd__fill_2
XFILLER_18_56 VGND VGND VPWR VPWR sky130_fd_sc_hd__decap_12
X_111_ _132_/D _132_/A VGND VGND VPWR VPWR _111_/X sky130_fd_sc_hd__and2_4
XFILLER_7_216 VGND VGND VPWR VPWR sky130_fd_sc_hd__fill_2
XFILLER_20_68 VGND VGND VPWR VPWR sky130_fd_sc_hd__decap_12
XFILLER_34_178 VGND VGND VPWR VPWR sky130_fd_sc_hd__decap_12
XFILLER_19_175 VGND VGND VPWR VPWR sky130_fd_sc_hd__decap_8
XFILLER_31_12 VGND VGND VPWR VPWR sky130_fd_sc_hd__decap_12
XFILLER_25_123 VGND VGND VPWR VPWR sky130_fd_sc_hd__decap_12
XFILLER_0_211 VGND VGND VPWR VPWR sky130_fd_sc_hd__decap_6
XPHY_195 VGND VPWR sky130_fd_sc_hd__tapvpwrvgnd_1
XPHY_184 VGND VPWR sky130_fd_sc_hd__tapvpwrvgnd_1
XPHY_173 VGND VPWR sky130_fd_sc_hd__tapvpwrvgnd_1
XPHY_162 VGND VPWR sky130_fd_sc_hd__tapvpwrvgnd_1
XPHY_151 VGND VPWR sky130_fd_sc_hd__tapvpwrvgnd_1
XPHY_140 VGND VPWR sky130_fd_sc_hd__tapvpwrvgnd_1
XFILLER_16_178 VGND VGND VPWR VPWR sky130_fd_sc_hd__decap_12
XFILLER_16_112 VGND VGND VPWR VPWR sky130_fd_sc_hd__decap_12
XFILLER_11_3 VGND VGND VPWR VPWR sky130_fd_sc_hd__decap_12
XFILLER_26_56 VGND VGND VPWR VPWR sky130_fd_sc_hd__decap_12
XFILLER_13_159 VGND VGND VPWR VPWR sky130_fd_sc_hd__decap_12
XFILLER_9_119 VGND VGND VPWR VPWR sky130_fd_sc_hd__decap_3
XFILLER_8_163 VGND VGND VPWR VPWR sky130_fd_sc_hd__decap_12
XFILLER_10_129 VGND VGND VPWR VPWR sky130_fd_sc_hd__decap_12
XFILLER_23_57 VGND VGND VPWR VPWR sky130_fd_sc_hd__decap_4
XFILLER_4_81 VGND VGND VPWR VPWR sky130_fd_sc_hd__decap_8
XFILLER_9_59 VGND VGND VPWR VPWR sky130_fd_sc_hd__fill_2
XFILLER_18_68 VGND VGND VPWR VPWR sky130_fd_sc_hd__decap_12
XFILLER_34_56 VGND VGND VPWR VPWR sky130_fd_sc_hd__decap_12
X_110_ _084_/C VGND VGND VPWR VPWR _132_/D sky130_fd_sc_hd__buf_2
XFILLER_19_110 VGND VGND VPWR VPWR sky130_fd_sc_hd__decap_12
XFILLER_10_91 VGND VGND VPWR VPWR sky130_fd_sc_hd__fill_1
XFILLER_31_68 VGND VGND VPWR VPWR sky130_fd_sc_hd__fill_1
XFILLER_31_24 VGND VGND VPWR VPWR sky130_fd_sc_hd__decap_12
XFILLER_25_135 VGND VGND VPWR VPWR sky130_fd_sc_hd__decap_4
XPHY_196 VGND VPWR sky130_fd_sc_hd__tapvpwrvgnd_1
XPHY_185 VGND VPWR sky130_fd_sc_hd__tapvpwrvgnd_1
XPHY_174 VGND VPWR sky130_fd_sc_hd__tapvpwrvgnd_1
XPHY_163 VGND VPWR sky130_fd_sc_hd__tapvpwrvgnd_1
XPHY_152 VGND VPWR sky130_fd_sc_hd__tapvpwrvgnd_1
XPHY_141 VGND VPWR sky130_fd_sc_hd__tapvpwrvgnd_1
XFILLER_16_124 VGND VGND VPWR VPWR sky130_fd_sc_hd__decap_12
XPHY_130 VGND VPWR sky130_fd_sc_hd__tapvpwrvgnd_1
XFILLER_26_68 VGND VGND VPWR VPWR sky130_fd_sc_hd__decap_12
XFILLER_21_171 VGND VGND VPWR VPWR sky130_fd_sc_hd__decap_12
XFILLER_27_208 VGND VGND VPWR VPWR sky130_fd_sc_hd__decap_8
XFILLER_8_175 VGND VGND VPWR VPWR sky130_fd_sc_hd__decap_12
XFILLER_5_123 VGND VGND VPWR VPWR sky130_fd_sc_hd__decap_12
XFILLER_4_93 VGND VGND VPWR VPWR sky130_fd_sc_hd__decap_12
XFILLER_34_68 VGND VGND VPWR VPWR sky130_fd_sc_hd__decap_12
XFILLER_1_3 VGND VGND VPWR VPWR sky130_fd_sc_hd__decap_12
XFILLER_34_3 VGND VGND VPWR VPWR sky130_fd_sc_hd__decap_12
XFILLER_20_15 VGND VGND VPWR VPWR sky130_fd_sc_hd__decap_12
XFILLER_31_36 VGND VGND VPWR VPWR sky130_fd_sc_hd__decap_12
XFILLER_25_147 VGND VGND VPWR VPWR sky130_fd_sc_hd__decap_12
XFILLER_15_59 VGND VGND VPWR VPWR sky130_fd_sc_hd__fill_2
XFILLER_15_15 VGND VGND VPWR VPWR sky130_fd_sc_hd__decap_12
XPHY_197 VGND VPWR sky130_fd_sc_hd__tapvpwrvgnd_1
XPHY_186 VGND VPWR sky130_fd_sc_hd__tapvpwrvgnd_1
XPHY_175 VGND VPWR sky130_fd_sc_hd__tapvpwrvgnd_1
XPHY_164 VGND VPWR sky130_fd_sc_hd__tapvpwrvgnd_1
XPHY_153 VGND VPWR sky130_fd_sc_hd__tapvpwrvgnd_1
XPHY_142 VGND VPWR sky130_fd_sc_hd__tapvpwrvgnd_1
XFILLER_16_136 VGND VGND VPWR VPWR sky130_fd_sc_hd__decap_12
XPHY_131 VGND VPWR sky130_fd_sc_hd__tapvpwrvgnd_1
XPHY_120 VGND VPWR sky130_fd_sc_hd__tapvpwrvgnd_1
XPHY_0 VGND VGND VPWR VPWR sky130_fd_sc_hd__decap_3
XFILLER_16_91 VGND VGND VPWR VPWR sky130_fd_sc_hd__fill_1
XFILLER_8_187 VGND VGND VPWR VPWR sky130_fd_sc_hd__decap_12
XFILLER_27_90 VGND VGND VPWR VPWR sky130_fd_sc_hd__decap_12
XFILLER_5_135 VGND VGND VPWR VPWR sky130_fd_sc_hd__decap_12
XFILLER_23_15 VGND VGND VPWR VPWR sky130_fd_sc_hd__decap_8
XFILLER_9_39 VGND VGND VPWR VPWR sky130_fd_sc_hd__decap_12
XFILLER_20_215 VGND VGND VPWR VPWR sky130_fd_sc_hd__decap_3
XFILLER_20_204 VGND VGND VPWR VPWR sky130_fd_sc_hd__decap_8
XFILLER_1_171 VGND VGND VPWR VPWR sky130_fd_sc_hd__decap_12
XFILLER_18_15 VGND VGND VPWR VPWR sky130_fd_sc_hd__decap_12
XFILLER_7_208 VGND VGND VPWR VPWR sky130_fd_sc_hd__decap_8
XFILLER_27_3 VGND VGND VPWR VPWR sky130_fd_sc_hd__decap_12
XFILLER_24_91 VGND VGND VPWR VPWR sky130_fd_sc_hd__fill_1
X_099_ _083_/D _138_/D _098_/X _148_/A VGND VGND VPWR VPWR _099_/X sky130_fd_sc_hd__a211o_4
XFILLER_20_27 VGND VGND VPWR VPWR sky130_fd_sc_hd__decap_4
XFILLER_1_62 VGND VGND VPWR VPWR sky130_fd_sc_hd__decap_12
XFILLER_19_123 VGND VGND VPWR VPWR sky130_fd_sc_hd__decap_12
XFILLER_10_93 VGND VGND VPWR VPWR sky130_fd_sc_hd__decap_12
XFILLER_33_170 VGND VGND VPWR VPWR sky130_fd_sc_hd__fill_1
XFILLER_25_159 VGND VGND VPWR VPWR sky130_fd_sc_hd__decap_12
XFILLER_15_27 VGND VGND VPWR VPWR sky130_fd_sc_hd__decap_12
XPHY_198 VGND VPWR sky130_fd_sc_hd__tapvpwrvgnd_1
XPHY_187 VGND VPWR sky130_fd_sc_hd__tapvpwrvgnd_1
XFILLER_31_48 VGND VGND VPWR VPWR sky130_fd_sc_hd__decap_12
XPHY_176 VGND VPWR sky130_fd_sc_hd__tapvpwrvgnd_1
XPHY_165 VGND VPWR sky130_fd_sc_hd__tapvpwrvgnd_1
XFILLER_24_181 VGND VGND VPWR VPWR sky130_fd_sc_hd__decap_12
XPHY_154 VGND VPWR sky130_fd_sc_hd__tapvpwrvgnd_1
XPHY_143 VGND VPWR sky130_fd_sc_hd__tapvpwrvgnd_1
XFILLER_16_148 VGND VGND VPWR VPWR sky130_fd_sc_hd__decap_4
XPHY_132 VGND VPWR sky130_fd_sc_hd__tapvpwrvgnd_1
XPHY_110 VGND VPWR sky130_fd_sc_hd__tapvpwrvgnd_1
XPHY_121 VGND VPWR sky130_fd_sc_hd__tapvpwrvgnd_1
XFILLER_15_170 VGND VGND VPWR VPWR sky130_fd_sc_hd__decap_12
XPHY_1 VGND VGND VPWR VPWR sky130_fd_sc_hd__decap_3
XFILLER_26_15 VGND VGND VPWR VPWR sky130_fd_sc_hd__decap_12
XFILLER_21_184 VGND VGND VPWR VPWR sky130_fd_sc_hd__decap_12
XFILLER_32_80 VGND VGND VPWR VPWR sky130_fd_sc_hd__decap_12
XFILLER_5_147 VGND VGND VPWR VPWR sky130_fd_sc_hd__decap_12
XFILLER_32_213 VGND VGND VPWR VPWR sky130_fd_sc_hd__fill_1
XFILLER_4_180 VGND VGND VPWR VPWR sky130_fd_sc_hd__decap_12
XFILLER_14_213 VGND VGND VPWR VPWR sky130_fd_sc_hd__fill_1
XFILLER_13_82 VGND VGND VPWR VPWR sky130_fd_sc_hd__fill_2
XFILLER_34_15 VGND VGND VPWR VPWR sky130_fd_sc_hd__decap_12
XFILLER_18_27 VGND VGND VPWR VPWR sky130_fd_sc_hd__decap_4
XFILLER_11_216 VGND VGND VPWR VPWR sky130_fd_sc_hd__fill_2
X_098_ _098_/A _093_/X _097_/X VGND VGND VPWR VPWR _098_/X sky130_fd_sc_hd__and3_4
XFILLER_29_15 VGND VGND VPWR VPWR sky130_fd_sc_hd__decap_12
XFILLER_1_74 VGND VGND VPWR VPWR sky130_fd_sc_hd__decap_12
XFILLER_29_59 VGND VGND VPWR VPWR sky130_fd_sc_hd__fill_2
XFILLER_28_168 VGND VGND VPWR VPWR sky130_fd_sc_hd__decap_12
XFILLER_34_105 VGND VGND VPWR VPWR sky130_fd_sc_hd__decap_12
XFILLER_19_135 VGND VGND VPWR VPWR sky130_fd_sc_hd__decap_6
XFILLER_33_182 VGND VGND VPWR VPWR sky130_fd_sc_hd__fill_1
XFILLER_18_190 VGND VGND VPWR VPWR sky130_fd_sc_hd__decap_12
XFILLER_15_39 VGND VGND VPWR VPWR sky130_fd_sc_hd__decap_12
XPHY_100 VGND VPWR sky130_fd_sc_hd__tapvpwrvgnd_1
XPHY_199 VGND VPWR sky130_fd_sc_hd__tapvpwrvgnd_1
XPHY_188 VGND VPWR sky130_fd_sc_hd__tapvpwrvgnd_1
XPHY_177 VGND VPWR sky130_fd_sc_hd__tapvpwrvgnd_1
XPHY_166 VGND VPWR sky130_fd_sc_hd__tapvpwrvgnd_1
XFILLER_24_193 VGND VGND VPWR VPWR sky130_fd_sc_hd__decap_12
XPHY_155 VGND VPWR sky130_fd_sc_hd__tapvpwrvgnd_1
XPHY_144 VGND VPWR sky130_fd_sc_hd__tapvpwrvgnd_1
Xclkbuf_0_clk clk VGND VGND VPWR VPWR clkbuf_0_clk/X sky130_fd_sc_hd__clkbuf_16
XPHY_133 VGND VPWR sky130_fd_sc_hd__tapvpwrvgnd_1
XFILLER_15_182 VGND VGND VPWR VPWR sky130_fd_sc_hd__fill_1
XPHY_2 VGND VGND VPWR VPWR sky130_fd_sc_hd__decap_3
XPHY_111 VGND VPWR sky130_fd_sc_hd__tapvpwrvgnd_1
XPHY_122 VGND VPWR sky130_fd_sc_hd__tapvpwrvgnd_1
XFILLER_30_141 VGND VGND VPWR VPWR sky130_fd_sc_hd__decap_12
XFILLER_26_27 VGND VGND VPWR VPWR sky130_fd_sc_hd__decap_4
XFILLER_21_196 VGND VGND VPWR VPWR sky130_fd_sc_hd__decap_12
XFILLER_13_119 VGND VGND VPWR VPWR sky130_fd_sc_hd__decap_3
XFILLER_7_62 VGND VGND VPWR VPWR sky130_fd_sc_hd__decap_12
XFILLER_5_159 VGND VGND VPWR VPWR sky130_fd_sc_hd__decap_12
XFILLER_4_30 VGND VGND VPWR VPWR sky130_fd_sc_hd__fill_1
XFILLER_4_192 VGND VGND VPWR VPWR sky130_fd_sc_hd__decap_12
XFILLER_2_107 VGND VGND VPWR VPWR sky130_fd_sc_hd__decap_12
XFILLER_1_184 VGND VGND VPWR VPWR sky130_fd_sc_hd__decap_12
XFILLER_9_19 VGND VGND VPWR VPWR sky130_fd_sc_hd__fill_2
XFILLER_34_27 VGND VGND VPWR VPWR sky130_fd_sc_hd__decap_4
XFILLER_24_93 VGND VGND VPWR VPWR sky130_fd_sc_hd__decap_12
XFILLER_1_86 VGND VGND VPWR VPWR sky130_fd_sc_hd__decap_12
X_097_ _102_/B _084_/D VGND VGND VPWR VPWR _097_/X sky130_fd_sc_hd__or2_4
XFILLER_36_180 VGND VGND VPWR VPWR sky130_fd_sc_hd__decap_6
XFILLER_29_27 VGND VGND VPWR VPWR sky130_fd_sc_hd__decap_12
XFILLER_10_51 VGND VGND VPWR VPWR sky130_fd_sc_hd__decap_12
XFILLER_34_117 VGND VGND VPWR VPWR sky130_fd_sc_hd__decap_6
XFILLER_32_3 VGND VGND VPWR VPWR sky130_fd_sc_hd__decap_4
XFILLER_19_60 VGND VGND VPWR VPWR sky130_fd_sc_hd__fill_1
X_149_ _128_/A _149_/B _149_/C VGND VGND VPWR VPWR _149_/X sky130_fd_sc_hd__and3_4
XFILLER_25_139 VGND VGND VPWR VPWR sky130_fd_sc_hd__fill_1
XPHY_189 VGND VPWR sky130_fd_sc_hd__tapvpwrvgnd_1
XPHY_178 VGND VPWR sky130_fd_sc_hd__tapvpwrvgnd_1
XPHY_167 VGND VPWR sky130_fd_sc_hd__tapvpwrvgnd_1
XPHY_156 VGND VPWR sky130_fd_sc_hd__tapvpwrvgnd_1
XPHY_145 VGND VPWR sky130_fd_sc_hd__tapvpwrvgnd_1
XPHY_134 VGND VPWR sky130_fd_sc_hd__tapvpwrvgnd_1
XPHY_123 VGND VPWR sky130_fd_sc_hd__tapvpwrvgnd_1
XPHY_101 VGND VPWR sky130_fd_sc_hd__tapvpwrvgnd_1
XPHY_112 VGND VPWR sky130_fd_sc_hd__tapvpwrvgnd_1
XFILLER_22_109 VGND VGND VPWR VPWR sky130_fd_sc_hd__decap_12
XPHY_3 VGND VGND VPWR VPWR sky130_fd_sc_hd__decap_3
XFILLER_7_74 VGND VGND VPWR VPWR sky130_fd_sc_hd__decap_12
XFILLER_8_102 VGND VGND VPWR VPWR sky130_fd_sc_hd__decap_12
XFILLER_32_93 VGND VGND VPWR VPWR sky130_fd_sc_hd__decap_12
XFILLER_32_215 VGND VGND VPWR VPWR sky130_fd_sc_hd__decap_3
XFILLER_27_60 VGND VGND VPWR VPWR sky130_fd_sc_hd__fill_1
XFILLER_4_160 VGND VGND VPWR VPWR sky130_fd_sc_hd__fill_1
XFILLER_2_119 VGND VGND VPWR VPWR sky130_fd_sc_hd__decap_12
XFILLER_14_215 VGND VGND VPWR VPWR sky130_fd_sc_hd__decap_3
XFILLER_13_62 VGND VGND VPWR VPWR sky130_fd_sc_hd__decap_12
XFILLER_13_51 VGND VGND VPWR VPWR sky130_fd_sc_hd__decap_8
XFILLER_1_196 VGND VGND VPWR VPWR sky130_fd_sc_hd__decap_8
XFILLER_1_98 VGND VGND VPWR VPWR sky130_fd_sc_hd__decap_12
X_096_ _143_/B VGND VGND VPWR VPWR _098_/A sky130_fd_sc_hd__inv_2
XFILLER_29_39 VGND VGND VPWR VPWR sky130_fd_sc_hd__decap_12
X_148_ _148_/A _147_/X VGND VGND VPWR VPWR _149_/C sky130_fd_sc_hd__or2_4
XFILLER_10_63 VGND VGND VPWR VPWR sky130_fd_sc_hd__decap_12
XFILLER_33_184 VGND VGND VPWR VPWR sky130_fd_sc_hd__decap_12
X_079_ _079_/A VGND VGND VPWR VPWR _079_/Y sky130_fd_sc_hd__inv_2
XFILLER_25_3 VGND VGND VPWR VPWR sky130_fd_sc_hd__decap_12
XPHY_179 VGND VPWR sky130_fd_sc_hd__tapvpwrvgnd_1
XPHY_168 VGND VPWR sky130_fd_sc_hd__tapvpwrvgnd_1
XPHY_157 VGND VPWR sky130_fd_sc_hd__tapvpwrvgnd_1
XFILLER_21_62 VGND VGND VPWR VPWR sky130_fd_sc_hd__decap_12
XFILLER_21_51 VGND VGND VPWR VPWR sky130_fd_sc_hd__decap_8
XPHY_146 VGND VPWR sky130_fd_sc_hd__tapvpwrvgnd_1
XPHY_135 VGND VPWR sky130_fd_sc_hd__tapvpwrvgnd_1
XPHY_124 VGND VPWR sky130_fd_sc_hd__tapvpwrvgnd_1
XPHY_102 VGND VPWR sky130_fd_sc_hd__tapvpwrvgnd_1
XPHY_113 VGND VPWR sky130_fd_sc_hd__tapvpwrvgnd_1
XFILLER_30_154 VGND VGND VPWR VPWR sky130_fd_sc_hd__decap_6
XFILLER_15_184 VGND VGND VPWR VPWR sky130_fd_sc_hd__decap_12
XPHY_4 VGND VGND VPWR VPWR sky130_fd_sc_hd__decap_3
XFILLER_7_86 VGND VGND VPWR VPWR sky130_fd_sc_hd__decap_12
XFILLER_29_210 VGND VGND VPWR VPWR sky130_fd_sc_hd__decap_8
XFILLER_21_110 VGND VGND VPWR VPWR sky130_fd_sc_hd__decap_12
XFILLER_8_114 VGND VGND VPWR VPWR sky130_fd_sc_hd__decap_12
XFILLER_12_154 VGND VGND VPWR VPWR sky130_fd_sc_hd__decap_12
XFILLER_23_216 VGND VGND VPWR VPWR sky130_fd_sc_hd__fill_2
XFILLER_4_32 VGND VGND VPWR VPWR sky130_fd_sc_hd__decap_12
XFILLER_14_205 VGND VGND VPWR VPWR sky130_fd_sc_hd__decap_8
XFILLER_13_74 VGND VGND VPWR VPWR sky130_fd_sc_hd__decap_8
XFILLER_11_208 VGND VGND VPWR VPWR sky130_fd_sc_hd__decap_8
X_095_ coin[0] _092_/A VGND VGND VPWR VPWR _143_/B sky130_fd_sc_hd__and2_4
XFILLER_28_105 VGND VGND VPWR VPWR sky130_fd_sc_hd__decap_12
XFILLER_27_171 VGND VGND VPWR VPWR sky130_fd_sc_hd__decap_12
XFILLER_19_62 VGND VGND VPWR VPWR sky130_fd_sc_hd__decap_12
XFILLER_10_75 VGND VGND VPWR VPWR sky130_fd_sc_hd__decap_12
XFILLER_33_196 VGND VGND VPWR VPWR sky130_fd_sc_hd__decap_8
XFILLER_33_174 VGND VGND VPWR VPWR sky130_fd_sc_hd__decap_8
XFILLER_18_3 VGND VGND VPWR VPWR sky130_fd_sc_hd__decap_12
X_078_ coin[0] coin[1] VGND VGND VPWR VPWR _079_/A sky130_fd_sc_hd__or2_4
X_147_ _098_/A _093_/X _083_/D VGND VGND VPWR VPWR _147_/X sky130_fd_sc_hd__and3_4
XPHY_169 VGND VPWR sky130_fd_sc_hd__tapvpwrvgnd_1
XFILLER_24_141 VGND VGND VPWR VPWR sky130_fd_sc_hd__decap_12
XPHY_158 VGND VPWR sky130_fd_sc_hd__tapvpwrvgnd_1
XFILLER_21_74 VGND VGND VPWR VPWR sky130_fd_sc_hd__decap_12
XPHY_147 VGND VPWR sky130_fd_sc_hd__tapvpwrvgnd_1
XPHY_136 VGND VPWR sky130_fd_sc_hd__tapvpwrvgnd_1
XPHY_125 VGND VPWR sky130_fd_sc_hd__tapvpwrvgnd_1
XPHY_103 VGND VPWR sky130_fd_sc_hd__tapvpwrvgnd_1
XPHY_114 VGND VPWR sky130_fd_sc_hd__tapvpwrvgnd_1
XFILLER_15_196 VGND VGND VPWR VPWR sky130_fd_sc_hd__decap_4
XPHY_5 VGND VGND VPWR VPWR sky130_fd_sc_hd__decap_3
XFILLER_7_98 VGND VGND VPWR VPWR sky130_fd_sc_hd__decap_12
XFILLER_8_126 VGND VGND VPWR VPWR sky130_fd_sc_hd__decap_12
XFILLER_12_166 VGND VGND VPWR VPWR sky130_fd_sc_hd__decap_12
XFILLER_4_44 VGND VGND VPWR VPWR sky130_fd_sc_hd__decap_12
XFILLER_1_110 VGND VGND VPWR VPWR sky130_fd_sc_hd__decap_12
X_094_ _093_/X VGND VGND VPWR VPWR _138_/D sky130_fd_sc_hd__inv_2
XFILLER_6_202 VGND VGND VPWR VPWR sky130_fd_sc_hd__decap_12
XFILLER_28_117 VGND VGND VPWR VPWR sky130_fd_sc_hd__decap_12
XFILLER_1_45 VGND VGND VPWR VPWR sky130_fd_sc_hd__decap_12
XFILLER_36_194 VGND VGND VPWR VPWR sky130_fd_sc_hd__decap_12
XFILLER_35_51 VGND VGND VPWR VPWR sky130_fd_sc_hd__decap_8
XFILLER_19_74 VGND VGND VPWR VPWR sky130_fd_sc_hd__decap_12
XFILLER_3_216 VGND VGND VPWR VPWR sky130_fd_sc_hd__fill_2
XFILLER_10_87 VGND VGND VPWR VPWR sky130_fd_sc_hd__decap_4
XFILLER_35_95 VGND VGND VPWR VPWR sky130_fd_sc_hd__decap_12
XFILLER_35_62 VGND VGND VPWR VPWR sky130_fd_sc_hd__decap_12
XFILLER_33_142 VGND VGND VPWR VPWR sky130_fd_sc_hd__decap_12
X_146_ change[1] _088_/Y VGND VGND VPWR VPWR _149_/B sky130_fd_sc_hd__or2_4
X_077_ _132_/C VGND VGND VPWR VPWR _128_/A sky130_fd_sc_hd__buf_2
XPHY_159 VGND VPWR sky130_fd_sc_hd__tapvpwrvgnd_1
XPHY_148 VGND VPWR sky130_fd_sc_hd__tapvpwrvgnd_1
XPHY_137 VGND VPWR sky130_fd_sc_hd__tapvpwrvgnd_1
XPHY_104 VGND VPWR sky130_fd_sc_hd__tapvpwrvgnd_1
XPHY_115 VGND VPWR sky130_fd_sc_hd__tapvpwrvgnd_1
XPHY_126 VGND VPWR sky130_fd_sc_hd__tapvpwrvgnd_1
XFILLER_21_86 VGND VGND VPWR VPWR sky130_fd_sc_hd__decap_12
XPHY_6 VGND VGND VPWR VPWR sky130_fd_sc_hd__decap_3
XFILLER_7_11 VGND VGND VPWR VPWR sky130_fd_sc_hd__fill_2
XFILLER_30_3 VGND VGND VPWR VPWR sky130_fd_sc_hd__decap_12
XFILLER_21_123 VGND VGND VPWR VPWR sky130_fd_sc_hd__decap_12
X_129_ choice[2] VGND VGND VPWR VPWR _134_/A sky130_fd_sc_hd__inv_2
XFILLER_32_30 VGND VGND VPWR VPWR sky130_fd_sc_hd__fill_1
XFILLER_16_75 VGND VGND VPWR VPWR sky130_fd_sc_hd__decap_12
XFILLER_8_138 VGND VGND VPWR VPWR sky130_fd_sc_hd__decap_12
XFILLER_12_101 VGND VGND VPWR VPWR sky130_fd_sc_hd__decap_8
XFILLER_12_112 VGND VGND VPWR VPWR sky130_fd_sc_hd__decap_12
XFILLER_12_145 VGND VGND VPWR VPWR sky130_fd_sc_hd__decap_8
XFILLER_12_178 VGND VGND VPWR VPWR sky130_fd_sc_hd__decap_12
XFILLER_7_171 VGND VGND VPWR VPWR sky130_fd_sc_hd__decap_12
XFILLER_26_215 VGND VGND VPWR VPWR sky130_fd_sc_hd__decap_3
XFILLER_4_89 VGND VGND VPWR VPWR sky130_fd_sc_hd__decap_3
XFILLER_4_141 VGND VGND VPWR VPWR sky130_fd_sc_hd__decap_12
XFILLER_13_87 VGND VGND VPWR VPWR sky130_fd_sc_hd__decap_12
XFILLER_8_3 VGND VGND VPWR VPWR sky130_fd_sc_hd__decap_6
X_093_ _132_/A _132_/B VGND VGND VPWR VPWR _093_/X sky130_fd_sc_hd__or2_4
X_162_ _158_/CLK _149_/X VGND VGND VPWR VPWR change[1] sky130_fd_sc_hd__dfxtp_4
XFILLER_1_57 VGND VGND VPWR VPWR sky130_fd_sc_hd__decap_4
XFILLER_1_35 VGND VGND VPWR VPWR sky130_fd_sc_hd__fill_1
XFILLER_28_129 VGND VGND VPWR VPWR sky130_fd_sc_hd__decap_12
XFILLER_19_42 VGND VGND VPWR VPWR sky130_fd_sc_hd__decap_12
XFILLER_10_11 VGND VGND VPWR VPWR sky130_fd_sc_hd__decap_3
XFILLER_35_74 VGND VGND VPWR VPWR sky130_fd_sc_hd__decap_12
XFILLER_32_7 VGND VGND VPWR VPWR sky130_fd_sc_hd__fill_1
X_145_ _134_/C _140_/X _141_/X _144_/Y VGND VGND VPWR VPWR _150_/D sky130_fd_sc_hd__a211o_4
XFILLER_27_184 VGND VGND VPWR VPWR sky130_fd_sc_hd__decap_12
X_076_ _075_/Y VGND VGND VPWR VPWR _132_/C sky130_fd_sc_hd__buf_2
XFILLER_19_86 VGND VGND VPWR VPWR sky130_fd_sc_hd__decap_12
XFILLER_33_154 VGND VGND VPWR VPWR sky130_fd_sc_hd__decap_12
XFILLER_33_110 VGND VGND VPWR VPWR sky130_fd_sc_hd__decap_12
XPHY_105 VGND VPWR sky130_fd_sc_hd__tapvpwrvgnd_1
XPHY_116 VGND VPWR sky130_fd_sc_hd__tapvpwrvgnd_1
XFILLER_21_98 VGND VGND VPWR VPWR sky130_fd_sc_hd__decap_12
XPHY_149 VGND VPWR sky130_fd_sc_hd__tapvpwrvgnd_1
XPHY_138 VGND VPWR sky130_fd_sc_hd__tapvpwrvgnd_1
XFILLER_15_121 VGND VGND VPWR VPWR sky130_fd_sc_hd__fill_1
XPHY_127 VGND VPWR sky130_fd_sc_hd__tapvpwrvgnd_1
XPHY_7 VGND VGND VPWR VPWR sky130_fd_sc_hd__decap_3
XFILLER_30_179 VGND VGND VPWR VPWR sky130_fd_sc_hd__decap_12
X_128_ _128_/A _128_/B _127_/Y VGND VGND VPWR VPWR _154_/D sky130_fd_sc_hd__and3_4
XFILLER_23_3 VGND VGND VPWR VPWR sky130_fd_sc_hd__decap_12
XFILLER_21_135 VGND VGND VPWR VPWR sky130_fd_sc_hd__decap_12
XFILLER_16_87 VGND VGND VPWR VPWR sky130_fd_sc_hd__decap_4
XFILLER_16_32 VGND VGND VPWR VPWR sky130_fd_sc_hd__decap_3
XFILLER_12_124 VGND VGND VPWR VPWR sky130_fd_sc_hd__decap_12
XFILLER_27_42 VGND VGND VPWR VPWR sky130_fd_sc_hd__decap_12
XFILLER_17_216 VGND VGND VPWR VPWR sky130_fd_sc_hd__fill_2
XFILLER_23_208 VGND VGND VPWR VPWR sky130_fd_sc_hd__decap_8
XFILLER_13_99 VGND VGND VPWR VPWR sky130_fd_sc_hd__decap_12
XFILLER_1_123 VGND VGND VPWR VPWR sky130_fd_sc_hd__decap_12
XFILLER_24_43 VGND VGND VPWR VPWR sky130_fd_sc_hd__decap_12
XFILLER_24_32 VGND VGND VPWR VPWR sky130_fd_sc_hd__decap_8
X_161_ _158_/CLK _100_/X VGND VGND VPWR VPWR change[0] sky130_fd_sc_hd__dfxtp_4
XFILLER_6_215 VGND VGND VPWR VPWR sky130_fd_sc_hd__decap_3
X_092_ _092_/A VGND VGND VPWR VPWR _132_/B sky130_fd_sc_hd__buf_2
XFILLER_35_86 VGND VGND VPWR VPWR sky130_fd_sc_hd__fill_2
X_075_ reset VGND VGND VPWR VPWR _075_/Y sky130_fd_sc_hd__inv_2
XFILLER_27_196 VGND VGND VPWR VPWR sky130_fd_sc_hd__decap_12
XFILLER_19_98 VGND VGND VPWR VPWR sky130_fd_sc_hd__decap_12
XFILLER_19_54 VGND VGND VPWR VPWR sky130_fd_sc_hd__decap_6
X_144_ _144_/A VGND VGND VPWR VPWR _144_/Y sky130_fd_sc_hd__inv_2
XFILLER_33_166 VGND VGND VPWR VPWR sky130_fd_sc_hd__decap_4
XPHY_139 VGND VPWR sky130_fd_sc_hd__tapvpwrvgnd_1
XPHY_128 VGND VPWR sky130_fd_sc_hd__tapvpwrvgnd_1
XPHY_106 VGND VPWR sky130_fd_sc_hd__tapvpwrvgnd_1
XPHY_117 VGND VPWR sky130_fd_sc_hd__tapvpwrvgnd_1
XFILLER_16_3 VGND VGND VPWR VPWR sky130_fd_sc_hd__decap_12
XPHY_8 VGND VGND VPWR VPWR sky130_fd_sc_hd__decap_3
X_127_ _126_/X VGND VGND VPWR VPWR _127_/Y sky130_fd_sc_hd__inv_2
XFILLER_21_147 VGND VGND VPWR VPWR sky130_fd_sc_hd__decap_12
XFILLER_16_44 VGND VGND VPWR VPWR sky130_fd_sc_hd__decap_12
XFILLER_35_217 VGND VGND VPWR VPWR sky130_fd_sc_hd__fill_1
XFILLER_32_32 VGND VGND VPWR VPWR sky130_fd_sc_hd__decap_12
XFILLER_20_180 VGND VGND VPWR VPWR sky130_fd_sc_hd__decap_12
XFILLER_7_184 VGND VGND VPWR VPWR sky130_fd_sc_hd__decap_12
XFILLER_32_209 VGND VGND VPWR VPWR sky130_fd_sc_hd__decap_4
XFILLER_27_54 VGND VGND VPWR VPWR sky130_fd_sc_hd__decap_6
XFILLER_4_154 VGND VGND VPWR VPWR sky130_fd_sc_hd__decap_6
XFILLER_4_69 VGND VGND VPWR VPWR sky130_fd_sc_hd__decap_12
XFILLER_1_135 VGND VGND VPWR VPWR sky130_fd_sc_hd__decap_12
X_091_ coin[1] VGND VGND VPWR VPWR _092_/A sky130_fd_sc_hd__inv_2
XFILLER_24_55 VGND VGND VPWR VPWR sky130_fd_sc_hd__decap_12
XFILLER_1_15 VGND VGND VPWR VPWR sky130_fd_sc_hd__decap_12
XFILLER_10_212 VGND VGND VPWR VPWR sky130_fd_sc_hd__fill_2
X_160_ _155_/CLK _108_/Y VGND VGND VPWR VPWR out[2] sky130_fd_sc_hd__dfxtp_4
X_143_ reset _143_/B _142_/Y VGND VGND VPWR VPWR _144_/A sky130_fd_sc_hd__or3_4
XFILLER_3_208 VGND VGND VPWR VPWR sky130_fd_sc_hd__decap_8
XFILLER_33_123 VGND VGND VPWR VPWR sky130_fd_sc_hd__decap_12
XPHY_129 VGND VPWR sky130_fd_sc_hd__tapvpwrvgnd_1
XFILLER_2_80 VGND VGND VPWR VPWR sky130_fd_sc_hd__decap_12
XPHY_107 VGND VPWR sky130_fd_sc_hd__tapvpwrvgnd_1
XPHY_118 VGND VPWR sky130_fd_sc_hd__tapvpwrvgnd_1
X_126_ choice[2] choice[1] _125_/Y VGND VGND VPWR VPWR _126_/X sky130_fd_sc_hd__or3_4
XFILLER_15_123 VGND VGND VPWR VPWR sky130_fd_sc_hd__decap_4
XPHY_9 VGND VGND VPWR VPWR sky130_fd_sc_hd__decap_3
XFILLER_7_25 VGND VGND VPWR VPWR sky130_fd_sc_hd__decap_12